4
Coordinates from ORCA-job c3h1_1
  C   -0.00000000264512      0.00000000075779     -1.15364538294732
  H   0.00000000334689     -0.00000000161617     -2.22996679936832
  C   -0.00000000474953      0.00000000333804      0.09859145873314
  C   0.00000000404776     -0.00000000247966      1.43889072358250
