5
Coordinates from ORCA-job c3h2_2
  C   0.00000000000000      0.24337000000000      0.00000000000000
  C   -0.82786000000000      1.23232000000000      0.00000000000000
  C   0.56120000000000     -0.98138000000000      0.00000000000000
  H   1.64154000000000     -1.08311000000000      0.00000000000000
  H   -0.04158000000000     -1.88280000000000      0.00000000000000
