7
Coordinates from ORCA-job c3h4_3
  C   1.04303182038639     -0.23418900155259      0.00329190537831
  H   1.01548342967740     -1.30431081826402      0.23007219294406
  H   1.94590491437307      0.14326846590651     -0.49414686819755
  C   -0.08830265755894      0.54434722085497      0.14108487434344
  C   -1.24045725707425     -0.18521034632278     -0.15242317314371
  H   -1.22940177635999     -1.21457634854463      0.26682482303821
  H   -0.04336847344367      1.63706082792254      0.04088624563723
