5
Coordinates from ORCA-job c4h1_4
  C   -0.63556545848246     -0.93570964794010     -0.00000001672806
  C   0.20732807819788     -0.15991044975905      0.90629692122674
  C   0.20161927241930      0.91207767432388     -0.00000000536996
  C   0.20732806786407     -0.15991054845564     -0.90629693742509
  H   0.09831004000120      1.99814297183091      0.00000003829637
