7
Coordinates from ORCA-job c4h3_4
  C   -1.25166299603357     -1.63976352377429      0.00000005321705
  C   -0.65703433631935     -0.49884910613615     -0.00000002037675
  C   -0.00342542867148      0.72785839180609     -0.00000009361844
  C   1.36544703483676      0.83469736165896     -0.00000001634116
  H   1.99218222066679     -0.06132883252355     -0.00000001248912
  H   1.85641127112717      1.81210519923874      0.00000006278004
  H   -0.60520776560633      1.64737050973019      0.00000002682837
