8
Coordinates from ORCA-job c4h4_4
  C   -2.11010055524365     -0.31942547538591     -0.00063992045754
  C   -0.89710254537553      0.10578126274209     -0.00012448852649
  C   0.36885370250152      0.53690462816871      0.00031966086856
  C   1.57856171472372     -0.33165373702875     -0.00001846111859
  H   1.32352865238739     -1.39913487772926     -0.00054559078687
  H   2.20313016869166     -0.09620934277032     -0.88109526483711
  H   2.20291602388874     -0.09707808625829      0.88144647911224
  H   0.55442283842616      1.62377562826172      0.00063758574579
