8
Coordinates from ORCA-job c4h4_9
  C   -2.15861159683717      0.16837404623537     -0.00262186589880
  C   -0.82420497537599     -0.00969247174432      0.00662554610120
  C   0.42383545969862     -0.02079752572713      0.01982380157153
  C   1.86761239640038      0.00012276340634      0.00844244877147
  H   2.32629749128197     -0.91322087693823      0.42648432100699
  H   2.18110035454918      0.05896535908731     -1.05156032451115
  H   -2.72897792907290     -0.78120155354041     -0.01396420742417
  H   2.28948879935591      0.88988025922107      0.50891028038293
