8
Coordinates from ORCA-job c4h4_21
  C   -1.08736023525003     -0.09244062365781      0.13834860650027
  C   0.03126859721597      0.85797727758117     -0.01304714647602
  C   1.09167320041915     -0.06128561311224      0.18206348130865
  H   0.03255951877736      1.67229903584914     -0.75622460536464
  C   0.15229868017690     -0.91394896680245     -0.33947522078878
  H   -1.96122487321470     -0.01220542725843     -0.52406144216285
  H   -1.36343212017192     -0.36127993338284      1.16305409890631
  H   2.17403723204728     -0.02402574921655      0.29127222807705
