8
Coordinates from ORCA-job c4h4_24
  C   0.78951863824555     -0.66941827746600     -0.00000001242815
  C   0.78951862822521      0.66941827044273      0.00000002629414
  C   -0.78951862550406      0.66941828192279     -0.00000002277509
  C   -0.78951861495644     -0.66941827166913      0.00000000546620
  H   1.55966355450341     -1.44234141229199     -0.00000003239736
  H   -1.55966356830083      1.44234139792779     -0.00000002692036
  H   -1.55966355656291     -1.44234138940461      0.00000003655842
  H   1.55966354435007      1.44234140053841      0.00000002620219
