8
Coordinates from ORCA-job c4h4_11
  C   1.78575841126479     -0.17037761396694      0.00008385354306
  C   0.53035331852720      0.16143394143354     -0.00058724355654
  C   -0.77275453691466      0.48412187390697     -0.00103038918122
  C   -1.70117736972177     -0.61351949793804     -0.00004886335239
  H   2.32787157588504     -0.32144272121439     -0.94022552299235
  H   2.32635894893109     -0.32348364351095      0.94093493848996
  H   -1.02279527692649      1.56171712790708      0.00059595869846
  H   -2.72075507104521     -0.15426946661726      0.00170726835100
