8
Coordinates from ORCA-job c4h4_5
  C   1.69404629748371      0.65160997334779      0.00015501799035
  C   0.49922738741797      0.17711661595664      0.00002728483428
  C   -0.99013159855699      0.43982671756695     -0.00062611500259
  C   -0.49121887271800     -0.95667452282672      0.00045405823723
  H   -0.54171549082650     -1.53786352224208      0.92719886031909
  H   -0.54114631038214     -1.53908922981382     -0.92555195949334
  H   -1.39267119896637      0.86068717816644     -0.92774240228943
  H   -1.39329021345169      0.86188678984480      0.92567525540442
