8
Coordinates from ORCA-job c4h4_32
  C   -0.79445185490177     -0.74638420295004     -0.00000001871638
  C   0.51175601121810      0.01265092144208     -0.00000005468261
  C   1.79741393609039      0.00239091110147      0.00000006538270
  C   -0.80993502795148      0.73668775519920      0.00000000717414
  H   -1.05710977008745      1.26541749280329      0.92646869026072
  H   -1.05710983891831      1.26541745766962     -0.92646867493624
  H   -1.02766674565016     -1.28082518054353     -0.92667845480290
  H   -1.02766670979932     -1.28082515472209      0.92667844032056
