9
Coordinates from ORCA-job c4h5_3
  C   1.98313533658999     -0.23156300734563      0.00005653560226
  C   0.81157454871028      0.15036874360998     -0.00018013909328
  C   -0.50114127755371      0.56727318452510      0.00003704379594
  C   -1.67413564155126     -0.36448153666981     -0.00000090285941
  H   3.00487183742748     -0.56038139297589      0.00009393548718
  H   -1.35570049942913     -1.41685848138812     -0.00096879103489
  H   -2.31486259792561     -0.19655980891826      0.88552217577208
  H   -2.31593526071286     -0.19518674496020     -0.88446872528918
  H   -0.69788644555517      1.64627904412284      0.00029886761930
