9
Coordinates from ORCA-job c4h5_10
  C   1.84500971216983     -0.19997776230569     -0.00000002841364
  C   0.63684104107956      0.38980310475888      0.00000010963682
  C   -0.62092075195695     -0.29851333626911      0.00000014894915
  C   -1.91452522309779     -0.02725071470581     -0.00000002554693
  H   -2.68044018284762     -0.81174796608537      0.00000010916556
  H   -2.28192301581875      1.01338497798125     -0.00000028643738
  H   1.94366013505699     -1.28908129972575     -0.00000012135662
  H   2.76316722745922      0.39256636382562     -0.00000007038441
  H   0.57954105795552      1.49207663252597      0.00000016438744
