10
Coordinates from ORCA-job c4h6_15
  C   1.64104511059599      0.00023090276264     -0.00005300399087
  C   0.31590241265647      0.00011892768894     -0.00013429528071
  C   -0.93511070054894      0.76853842264100      0.00007664442655
  H   2.20892533872019     -0.93564474177282     -0.00002120482181
  H   -1.23872074504867      1.28224727167738      0.92011938623291
  H   2.20893232433117      0.93610277561845     -0.00006555269768
  C   -0.93457318011163     -0.76923551060929      0.00013573753194
  H   -1.23824679739331     -1.28310414175378     -0.91979427234262
  H   -1.23779562645574     -1.28305066452913      0.92024437330270
  H   -1.23912813674554      1.28214675827660     -0.91988781236040
