10
Coordinates from ORCA-job c4h6_20
  C   1.06122231538787      0.65011395554201     -0.11433969034230
  C   -0.15824200744803     -0.00003770285872      0.49104676115720
  C   -1.50619121653196      0.00009021064056     -0.21070601513020
  H   -2.09994766132703     -0.88927651265184      0.06389301699463
  C   1.06114072030058     -0.65025633431894     -0.11438807204987
  H   1.55036808808026     -1.58797555875093     -0.36928956077003
  H   -2.10012954063723      0.88912116790101      0.06457588965274
  H   -1.38126600458626      0.00051134203879     -1.30585198903607
  H   -0.24711481478533     -0.00009412062423      1.59256535608653
  H   1.55076012154711      1.58775355308229     -0.36893569656262
