10
Coordinates from ORCA-job c4h6_29
  C   0.82512577060864     -0.72895143001539     -0.14670683015106
  C   -1.66054002362309      0.00002271433106     -0.12375345204987
  C   0.82525846520270      0.72883400515181     -0.14681538360352
  C   -0.39600198481310      0.00012326738948      0.52231634352773
  H   -1.44227173478684      0.00000197940564     -1.22160143094788
  H   1.45514798063530     -1.26424366841845      0.56884362021572
  H   -0.35009419903103      0.00018760893407      1.61961899190977
  H   0.61300085964763     -1.26863091511503     -1.07233091965420
  H   1.45541072161105      1.26410506094704      0.56863731267754
  H   0.61323414454875      1.26840137738977     -1.07252825192424
