10
Coordinates from ORCA-job c4h6_6
  C   -1.97345494044923     -0.28216328788959      0.03519965433033
  C   -0.74438902204519      0.40299328898046     -0.14678374887654
  C   0.37740643890087     -0.38505318295273     -0.10072816558566
  C   1.77546151779931      0.09075499403594      0.06537553001568
  H   2.17971374143242     -0.23098409178130      1.04277168031735
  H   2.42680174256897     -0.37592885759884     -0.69512139017760
  H   1.85804541419455      1.18553479069391     -0.00186179298208
  H   -2.71524001860778      0.44419982612643      0.44675626851679
  H   0.19963021917075     -1.46724681619810     -0.12403370635487
  H   -0.61018509296467      1.50004333658382     -0.16931432920341
