10
Coordinates from ORCA-job c4h6_5
  C   1.55339405950410     -0.72622864951333      0.13134415717613
  C   0.94008220060803      0.51699688889688     -0.11224651966552
  C   -0.42729219636868      0.67416802025029      0.01689258677951
  C   -1.46960949823471     -0.38936490884258     -0.01559421591226
  H   -1.78014943143880     -0.68392613184971      1.00406952557999
  H   -2.37673804902930     -0.00771835146084     -0.51368395033975
  H   -1.11963853489584     -1.30039666942428     -0.52553186156779
  H   0.92867540074392     -1.56811466732873     -0.24659745936938
  H   -0.79081213429627      1.67887600371491      0.27684206480408
  H   1.54845818340755      1.43245846555739     -0.07336432748500
