11
Coordinates from ORCA-job c4h7_19
  C   0.00005714189258     -0.63083733052821      1.27974364430297
  C   -0.00008637874335      1.50432879668960      0.00000007582718
  C   0.00038911942814      0.19196906472402      0.00000004409047
  C   0.00005762486662     -0.63083718868663     -1.27974353092395
  H   -0.00007137083073      0.00413263546758      2.17632718415512
  H   0.88725974040219     -1.28777961220442      1.31351528343312
  H   -0.88727600255396     -1.28763090081751      1.31317394958960
  H   0.88726178892684     -1.28777731279313     -1.31351626128708
  H   -0.88727384121247     -1.28763310135758     -1.31317301481305
  H   -0.00007341560272      0.00413274919071     -2.17632711551528
  H   -0.00038440657314      2.57910220031559     -0.00000025885911
