13
Coordinates from ORCA-job c4h9_4
  C   0.00003075164705      1.48396103209334      0.10985799221236
  C   0.00000506470842      0.06018352036005     -0.34319606666145
  C   1.26995803886873     -0.68163152951047      0.10081321422546
  C   -1.26997063237519     -0.68158672272474      0.10084385733590
  H   -0.93676504177705      2.04239412140294      0.19618703482291
  H   0.93686722880826      2.04227689064369      0.19649676570830
  H   2.17836616234436     -0.16535786491318     -0.25002428351363
  H   1.32092527304386     -0.74206029284790      1.20095202477933
  H   -2.17836787393202     -0.16526602900932     -0.24995244227585
  H   -1.28952385443887     -1.70887788666884     -0.29761415909550
  H   -1.32090354882103     -0.74203541031602      1.20098273650635
  H   1.28945599524236     -1.70893252986628     -0.29762106324472
  H   -0.00001756331888      0.05863270135673     -1.45828561079945
