16
Coordinates from ORCA-job c5h11_8
  C   0.00000417127955     -0.31846113454192     -1.52114394417716
  H   0.93715692773007     -0.54377591285375     -2.03925731581757
  C   0.00000012420717      0.00430151611606     -0.05427779826772
  C   0.00001036072173     -1.31675898747622      0.75714876675860
  H   0.89110382764190     -1.92240815684361      0.52698208075619
  H   -0.89107156162942     -1.92242395001500      0.52697921332854
  C   1.25981751866489      0.81414727403954      0.30631360115826
  H   1.28448377237667      1.04284467863804      1.38453470608584
  H   2.17537751117314      0.25162055434442      0.05988853850111
  H   1.28854232950399      1.76688300745285     -0.24616521924128
  H   0.00000686401205     -1.10605877929245      1.84068734249003
  H   -0.93714459496869     -0.54378711542995     -2.03925963198259
  C   -1.25983126589696      0.81412653256983      0.30631102577182
  H   -2.17538171943925      0.25158436609997      0.05988579988276
  H   -1.28450277430253      1.04282493709052      1.38453178803497
  H   -1.28857149107431      1.76686117010167     -0.24616895328178
