16
Coordinates from ORCA-job c5h11_1
  C   2.50603184687452      0.14103808652430     -0.00000012994548
  H   3.27252047625214      0.93270270547949     -0.00000015797019
  H   2.67735610906417     -0.48959672883231      0.88872174161851
  H   2.67735585920196     -0.48959661494675     -0.88872212545523
  C   1.09352777116796      0.72469522832786      0.00000011957933
  H   0.96174662571200      1.37866100564165      0.88146119751009
  H   0.96174642369145      1.37866109967830     -0.88146087581365
  C   -0.00230040899247     -0.34295148501335      0.00000023252674
  H   0.11773579812091     -0.99757375063988     -0.88225352151228
  H   0.11773564339269     -0.99757340730929      0.88225426980232
  C   -1.43085938893465      0.25011523271435     -0.00000006653508
  H   -1.52964154812366      0.90507368788740      0.88541346104215
  H   -1.52964135736859      0.90507352332457     -0.88541372869743
  C   -2.51132146218115     -0.77626020442437     -0.00000010759251
  H   -2.85463631275157     -1.22928400725181     -0.93487668138988
  H   -2.85463607512571     -1.22928437116015      0.93487637283259
