16
Coordinates from ORCA-job c5h11_7
  C   2.11221552583805     -0.03024301460852     -0.12438177786724
  H   2.24924691125669      0.34275963134855     -1.14451521513379
  H   2.99149492872857     -0.07054726925534      0.52345033013367
  C   0.82262789553775     -0.65601887000338      0.27874659004183
  H   0.73088779592807     -0.66609159215984      1.38155136200819
  C   -0.43196028839041      0.00320617575935     -0.32929071965489
  C   -1.68735833412992     -0.81482904433035     -0.01543715717704
  H   -1.85851139827520     -0.86720242803786      1.07397717714476
  H   -1.60112671929119     -1.84829160017168     -0.38939814298875
  C   -0.58416022239872      1.45407212237528      0.13787305774483
  H   -1.45107990074462      1.94010224767919     -0.33868825057451
  H   -0.73461496843847      1.49728674763564      1.23091011305675
  H   0.31321990141954      2.04784714653349     -0.09704128752499
  H   -2.58423024380375     -0.36440603727121     -0.47076194508354
  H   -0.29597020062208      0.01138601791165     -1.42816282449860
  H   0.82080931738569     -1.72971023340497     -0.01652130962667
