16
Coordinates from ORCA-job c5h11_5
  C   2.06187989423773      0.01788888849806     -0.14038232269543
  H   2.94611072936504     -0.58478698879243      0.12099486500861
  H   2.08785313757433      0.20160620446296     -1.22714644409307
  H   2.16705029021640      0.99066688722053      0.36559993757193
  C   0.77312568212701     -0.70214969647532      0.26743553704199
  H   0.77521798297805     -1.72496121436570     -0.15197628237025
  H   0.78830167604523     -0.85392106886128      1.37257868139708
  C   -0.51271691241828     -0.02677565402866     -0.11819785723859
  C   -1.76357745023750     -0.84562278594021     -0.07160635563729
  H   -2.14996441750649     -0.94856660356051      0.96766319319502
  H   -1.59814674852588     -1.87101230720895     -0.44368240140906
  C   -0.63775323829033      1.46131028784928     -0.03054998400817
  H   -1.54609903754637      1.82061975126097     -0.54142082938667
  H   -0.71165318496388      1.80718348281057      1.02553093367662
  H   0.22693531689136      1.98656104020374     -0.46715910686659
  H   -2.57725371994642     -0.39048022307304     -0.66133156418614
