15
Coordinates from ORCA-job c5h10_13
  C   -2.42091229315450      0.12587631088702     -0.10703309564407
  C   -0.92010603247047      0.32288423228243      0.10462545672463
  C   -0.09470016084465     -0.89038534775358      0.16672103900775
  C   1.34998318645940     -0.68746424756495     -0.05989085792649
  C   2.03834555855213      0.68533640172408     -0.01851219298588
  H   -2.98267296315188      1.05848377469658      0.06417050850520
  H   -2.61995648997996     -0.20170056720761     -1.14019789282412
  H   -2.80576735100150     -0.65437819567880      0.56647898383593
  H   -0.72639713314314      0.65233784437601      1.16056540126104
  H   -0.52622908011850      1.16391469286575     -0.50653225160329
  H   1.95707107357293      1.13418863855922      0.98534859864087
  H   3.11033632894414      0.59052579510582     -0.25209706063026
  H   1.60453742903523      1.39915983067205     -0.73547644596565
  H   1.93295945483141     -1.44388396111776      0.49709231824036
  H   1.36494847246937     -1.10574520184625     -1.09977250863601
