6
Coordinates from ORCA-job c5h1_4
  C   0.62814272173097      0.74326000620974      0.00000026047531
  C   -0.63112216130722      0.04530836643675      0.00000005630289
  C   1.81708651975506     -0.03315967852033     -0.00000042019120
  C   0.58987281451739     -0.75651846482050      0.00000030804653
  C   -1.92778184853584      0.09762614375772     -0.00000013719614
  H   -2.83418804616036     -0.49772637306337     -0.00000006743738
