6
Coordinates from ORCA-job c5h1_18
  C   2.31864755770697      1.83035035175116      0.00123188959678
  C   1.32490691385699      0.96960272182241      0.00003591193666
  C   0.35924944440987      0.13500284030760     -0.00325347410878
  C   -0.64617633981091     -0.73784014741170     -0.00063115180592
  C   -1.57868718727727     -1.54631466833006      0.00144143006614
  H   -2.39307038888565     -2.24862109813940      0.00117539431512
