6
Coordinates from ORCA-job c5h1_5
  C   0.61824201376156      0.75160051281934      0.00008190554013
  C   -0.63155913785680      0.00098794951824      0.00032453603430
  C   1.82416722390616     -0.00016747238925     -0.00010009119998
  C   0.61788540713577     -0.75256850579237      0.00008568053189
  C   -1.91587559371485      0.00145513433332     -0.00088028115916
  H   -2.99131991323184     -0.00353761848928      0.00314825025281
