16
Coordinates from ORCA-job c5h11_6
  C   -2.14242476490625     -0.06712693004232      0.09726561172477
  H   -2.94075848819009     -0.78264559272679     -0.16051596970936
  H   -2.19437640596877      0.13004222083711      1.18294338550869
  H   -2.40842035518273      0.88906130958493     -0.40407942449095
  C   -0.79635563549504     -0.56287637664859     -0.30585913643265
  H   -0.70588362834829     -1.13552392104078     -1.23709112198663
  C   0.46131497827446     -0.03920950352750      0.32191949255824
  C   1.66596940854366     -0.93599441977631      0.01418581000725
  H   1.86098357597520     -0.96508173147120     -1.07177923713092
  H   1.49044137118574     -1.97011782234132      0.35063346023884
  C   0.74259016364561      1.42074160943041     -0.10062201808629
  H   1.63948703879681      1.81269940107834      0.40810968376956
  H   0.91305296338197      1.48474606292536     -1.18855376954418
  H   -0.10252271800301      2.08223053202022      0.14748299964252
  H   2.57918012939363     -0.56491301405647      0.50699382434383
  H   0.30940236689712     -0.02743182424511      1.42064640958730
