6
Coordinates from ORCA-job c5h1_15
  C   -0.00012698191815      0.30932382367256      0.74263211270274
  C   0.00011685119669      0.30932385016688     -0.74263242290781
  C   0.00015452168141     -1.24943685117150      0.65907082599720
  C   -0.00012031741437     -1.24945086396802     -0.65907383920428
  C   -0.00001708415365      1.44241607048256      0.00000262349024
  H   -0.00002698939193      2.53345397081753      0.00000069992192
