15
Coordinates from ORCA-job c5h10_6
  C   -0.69516036804815     -0.75274706071273      0.00000218222823
  C   0.54094030283307      0.12002810951165     -0.00000021371521
  C   1.84514852264410     -0.63649255149656     -0.00000024393476
  H   -0.63326631526477     -1.42825134056586      0.87510488832077
  H   1.91894342019261     -1.29423754766313      0.88448820124892
  H   1.91895177157875     -1.29422058764727     -0.88450066449836
  C   -2.04313489913647     -0.03840793927478     -0.00000334548450
  C   0.50295557085199      1.45967345772010     -0.00000360995878
  H   1.42431413891798      2.04946344558749     -0.00000462583064
  H   -0.43580867668255      2.01777557624938     -0.00000539027446
  H   -2.16050878002742      0.60095022634385     -0.88968987489313
  H   -2.86931515129038     -0.76659301310090     -0.00000077064690
  H   -2.16051216274311      0.60095925586838      0.88967617383397
  H   -0.63326341168832     -1.42826135306324     -0.87509238064182
  H   2.71347603786267      0.03870132224362      0.00000967424665
