7
Coordinates from ORCA-job c5h2_85
  C   -1.56991172518799     -0.00572383685277      0.26227934372826
  C   -0.37439286533927      0.68706095466042     -0.32296811370546
  C   -0.37182398631472     -0.68452114983183     -0.33458189731363
  C   0.86015234002406      0.00059005552149      0.04732794154170
  C   2.16693786150918      0.00185889484163      0.18074757706680
  H   -2.45638633444622     -0.00211191210347     -0.37600845502290
  H   -1.76483529024503     -0.01522300623547      1.34678360370524
