7
Coordinates from ORCA-job c5h2_52
  C   1.33083620450793      0.28123641431003      0.13191422224636
  C   -0.76737972999992     -0.67352516114060      0.08494494656115
  C   -0.05020762831709      0.69431182553274      0.14885479434257
  C   -1.37941747911135      0.62926402343411     -0.20397536967751
  C   0.67365078372570     -0.82329840588195     -0.28708827463362
  H   2.27943915182663      0.77146480195912     -0.07669416715506
  H   -1.19114130263189     -1.41568349821344      0.77552384831612
