7
Coordinates from ORCA-job c5h2_42
  C   1.14108160951972      0.45883832045136      0.06998424621775
  C   -0.31744997809767      0.81951728129913      0.00821531539151
  C   -1.51372529677286      0.29209838194614     -0.05502724945346
  C   0.68238618360457     -1.02994235735970      0.01321349414073
  C   -0.56962055629167     -0.80195190044014     -0.03675007513517
  H   1.72378966867347      0.78162326989414     -0.80343986314001
  H   1.63454836936443      0.73912700420907      1.01049413197865
