7
Coordinates from ORCA-job c5h2_97
  C   -1.33535617941103      0.23213542233150      0.00000000020621
  C   -0.39794644897860     -0.86278684011555      0.00000002627299
  C   0.00426618721236      0.59865735672816     -0.00000002776978
  C   0.18975582691944     -2.02562634301579     -0.00000001065049
  C   1.04753063801906      1.43778345860739      0.00000000664895
  H   2.08159373767191      1.08898878755064      0.00000000270954
  H   0.84680623856686      2.51334815791365      0.00000000258257
