8
Coordinates from ORCA-job c5h3_34
  C   -0.41192745403881     -0.92416346433974     -0.00000105571027
  C   -1.41847922967816      0.00000197374598     -0.00000577413926
  C   -0.41192440632439      0.92414663302287     -0.00001223102905
  C   1.02922868302948      0.67846578773537     -0.00000983877514
  C   1.02923039302734     -0.67845318612246     -0.00000178240882
  H   -2.50418826083344     -0.00000217349149     -0.00000778623895
  H   1.80145791925656      1.44715680341709     -0.00001305337519
  H   1.80146235556142     -1.44714237396763      0.00000152167667
