8
Coordinates from ORCA-job c5h3_57
  C   0.53626405739616     -0.01430829994411     -0.03821603806935
  C   -0.68326737107865      0.79485044703671     -0.01969404793283
  C   -1.72023206293219     -0.20252225585571      0.30041858084508
  C   -0.65699069325627     -0.82171943970487     -0.26154383994833
  C   1.85910277849409     -0.03137314371397      0.08105027008073
  H   2.41365315967986     -0.96881974182559      0.00630154386532
  H   -0.87722367046860      1.70699298661793     -0.60575155092583
  H   2.40993380216560      0.89062944738962      0.27738508208520
