8
Coordinates from ORCA-job c5h3_11
  C   2.32132071458154     -0.46207428996232     -0.00000064383402
  C   1.22954252948933      0.09276238140462      0.00000188510965
  C   0.00000167061047      0.75086256216157      0.00000471195021
  C   -1.22954123894397      0.09276712789121     -0.00000250869861
  C   -2.32131554099063     -0.46207734668312     -0.00001223457095
  H   3.27469536479204     -0.95628390559168     -0.00000291916390
  H   0.00000644288774      1.84844090103747      0.00001163330008
  H   -3.27468994242652     -0.95628743025774      0.00010007590755
