8
Coordinates from ORCA-job c5h3_18
  C   0.58414797083867      0.16137477000733     -0.00000001315005
  C   -0.82731701278061     -0.14992566060301      0.00000000345611
  C   -2.03120131738329     -0.32737665711413      0.00000001726947
  C   1.65151608334235     -0.74511870852610      0.00000001191179
  C   0.44856857352732      1.51619327915268     -0.00000006236925
  H   -3.09181424451646     -0.50066652225565      0.00000002951843
  H   2.67733473470916     -0.37472454507527      0.00000010568257
  H   1.46072521226285     -1.81821595558585     -0.00000009231907
