8
Coordinates from ORCA-job c5h3_16
  C   2.59488881264046      0.30550800547332     -0.00009694561305
  C   1.37694027834881     -0.10067884883822      0.00000815459251
  C   0.09954736682825     -0.52417693200706      0.00012782986611
  C   -1.04776196494086      0.36324891200894      0.00004445531676
  C   -2.30304071917531     -0.07707250865098     -0.00001599950006
  H   -0.12075225738299     -1.60175449028416     -0.00002542293971
  H   -0.83763532876091      1.44553740436153      0.00004283863498
  H   -3.30917618755746      0.34378845793663     -0.00007491035753
