8
Coordinates from ORCA-job c5h3_62
  C   -0.43430900828220      0.01315245310206     -0.00000032302137
  C   0.74211209974389      0.75853894135095      0.00000164399626
  C   1.99806821388786     -0.01005886491115      0.00000003516723
  C   0.75600539797107     -0.73963258133254     -0.00000173846400
  C   -1.90380910377381     -0.01252499122268     -0.00000200098554
  H   -2.28632216287284     -0.54224417917806     -0.88927096455748
  H   -2.28632399177568     -0.54225084733648      0.88926216863743
  H   -2.29873144489827      1.01265006952791      0.00000117922748
