8
Coordinates from ORCA-job c5h3_4
  C   -2.18525858448572     -0.49843497287443     -0.00024933073746
  C   -1.13176048084238      0.09668092936566     -0.00018062679053
  C   0.14013439968370      0.82660307630700      0.00007729154084
  C   1.32161193337435     -0.05120472556712     -0.00014445340941
  C   2.33769764783011     -0.71727305248937      0.00002132338529
  H   0.18434144475468      1.48958346944278      0.88341072017203
  H   0.18443238367696      1.49010447366266     -0.88286213082544
  H   -3.12012874399170     -1.02699919784717     -0.00011279333532
