8
Coordinates from ORCA-job c5h3_49
  C   0.00610849014424     -0.57761367821933     -0.49573030299124
  C   0.87472939055417      0.68459017869132      0.01101277023810
  C   -1.22756570673032     -0.24635422902215      0.31256805741276
  C   -0.44918385965333      0.95770596930898     -0.16500713896905
  C   1.36402902219389     -0.51631221358215      0.38623954876301
  H   -2.21357168888396     -0.42258570826597     -0.13297005151123
  H   -1.15996838499124     -0.46141939261271      1.38820996546037
  H   -0.02540726263344     -0.86795092629799     -1.54969284840273
