8
Coordinates from ORCA-job c5h3_39
  C   -1.03610186315583      0.08419288112103      0.20884284492714
  C   0.00002743173719     -0.92991686489938      0.35806162403259
  C   -0.00002601202321      1.10451995907316      0.17657083937256
  C   1.03610098521125      0.08424881914551      0.20886419174818
  C   0.00000667300097     -0.00481866894551     -0.99610318904336
  H   0.00005231041480     -2.01931638804308      0.30052720788760
  H   2.11373828585692      0.08101982667679      0.06964280965932
  H   -2.11373781104209      0.08089043587148      0.06961367141596
