8
Coordinates from ORCA-job c5h3_27
  C   -0.48067109145699     -0.15969827094532      0.00000004566898
  C   0.90502743626063     -0.55552299352574      0.00000007179161
  C   1.89038598911999      0.35615655814436     -0.00000000598229
  C   -1.82905768915025     -0.46125161526751     -0.00000027480342
  C   -1.44138727039975      0.84733125850583      0.00000021418670
  H   1.66105193595656      1.42591401315972     -0.00000007486778
  H   2.94165839866289      0.05655673854061     -0.00000006840862
  H   1.11277229100693     -1.63072568861196      0.00000009241482
