8
Coordinates from ORCA-job c5h3_14
  C   -2.18127749436797     -0.44039202181313     -0.00000018785773
  C   -1.10637119014420      0.14543505783221     -0.00000173022035
  C   0.10630453908059      0.83170456003118     -0.00000354800330
  C   1.37177618692906      0.18411556886768     -0.00000071730696
  C   1.92982502417437     -1.01648864988519      0.00000215079404
  H   -3.12087195481866     -0.96066741552166      0.00000113261453
  H   2.31018257708256      0.79603063988388     -0.00000077358929
  H   0.08649231206424      1.92504226060503     -0.00000632643095
