8
Coordinates from ORCA-job c5h3_64
  C   0.55603817062675     -0.00011517315042     -0.04401455251577
  C   -0.59890225270935      0.90168894686132     -0.16455146581553
  C   -1.60170057800320     -0.00020477831804      0.18477396200912
  C   -0.59883503770043     -0.90196453714755     -0.16479128230779
  C   1.87948767445378     -0.00009476634901      0.07971684416623
  H   2.43095416477625      0.94047294000538      0.14273141190796
  H   2.43093429848798     -0.94069478284329      0.14246532678405
  H   -2.68130643993179     -0.00030784905839      0.30943975577173
