8
Coordinates from ORCA-job c5h3_44
  C   0.09786485998729      0.39232719394491      0.92434494374642
  C   0.09864233714358      0.39136521391268     -0.92353831597819
  C   -0.20389976333105     -1.01708236524412      0.67842553139093
  C   -0.20366422144689     -1.01756134342821     -0.67854315761114
  C   0.30836141649072      1.37652756344400     -0.00019792847016
  H   -0.36538443766402     -1.77246806327848     -1.44737307804348
  H   -0.36604347508317     -1.77165229995350      1.44755940867081
  H   0.53637328390353      2.43803410060272     -0.00067740370519
