8
Coordinates from ORCA-job c5h3_25
  C   0.16227551897956     -0.18282346310434     -0.00048063469894
  C   -1.17995452136175     -0.50819052875911     -0.00038808002441
  C   -2.10969550343885      0.53749669728131      0.00106171307256
  C   1.17562412551060      0.79972624180416     -0.00018891141302
  C   1.54979510322884     -0.48340910726153      0.00071771192438
  H   -1.43617629487308     -1.58369177255595     -0.00032299152149
  H   1.44922441844486      1.85353008006866     -0.00029281746309
  H   2.35720715350982     -1.21426814747319      0.00163401012399
