10
Coordinates from ORCA-job c5h4_30
  C   1.51781280382861     -0.00108042225962      0.00081852048600
  C   0.54710602512022      1.02671970203608     -0.00044407515338
  C   -0.54079854299075      0.00036823368161      0.00018678359371
  C   0.54571484822891     -1.02752546430335     -0.00039773648844
  C   -1.87847428785071      0.00061410381890      0.00081090896265
  H   -2.44369415414817      0.93637350763838      0.00094318342599
  H   -2.44355189468322     -0.93523400595263      0.00097188656322
  H   2.60954098874085     -0.00178587596408      0.00154412085107
  H   0.56851127434818     -2.11722631602639     -0.00046440110388
  H   0.57146293940608      2.11638653733111     -0.00065919113695
