9
Coordinates from ORCA-job c5h4_43
  C   -0.97456461264391      0.76928067216641      0.00024157554044
  C   -0.97450839646106     -0.76922136214187     -0.00060019971638
  C   0.55156663709583      0.71740546204060      0.00003281154897
  C   0.55173698017268     -0.71761406877436      0.00004021583471
  C   1.77869647404029      0.00028157534555      0.00016879482636
  H   -1.37827213479959     -1.27204849625229     -0.89238869439617
  H   -1.37857608567862      1.27204190008042      0.89195358011739
  H   -1.37949195207981      1.27363753126024     -0.89014533790047
  H   -1.37967690964581     -1.27356321372469      0.88968725414515
