9
Coordinates from ORCA-job c5h4_49
  C   -0.00006867822057     -0.29301189220639      1.20070833246674
  C   -0.00010685904321     -1.23949886156867      0.00000003612150
  C   -0.00006891250637     -0.29301162273815     -1.20070817635292
  C   -0.00006113613095      1.10286567179525      0.61503294828402
  C   -0.00006145822970      1.10286571811738     -0.61503358073716
  H   0.87063032737702     -0.54245804851659     -1.83917019416935
  H   -0.87070180495589     -0.54244627470514     -1.83926086677936
  H   0.87063045282551     -0.54245830335041      1.83917068816788
  H   -0.87070193111584     -0.54244638682729      1.83926081299865
