9
Coordinates from ORCA-job c5h4_24
  C   -0.00023608220401     -0.78878531981251      0.80183976168107
  C   0.00019244795060      0.69190914276644      1.26015060910644
  C   0.00029796373086      1.07629895329140      0.00000004888763
  C   -0.00023614282217     -0.78878545538178     -0.80183944803917
  C   0.00019217417226      0.69190927257922     -1.26015097855116
  H   -0.88206626823398     -1.29474522671530      1.23401027355184
  H   0.88135095865618     -1.29519823461814      1.23397950577492
  H   -0.88206607901709     -1.29474536064091     -1.23401031345303
  H   0.88135102776736     -1.29519777146842     -1.23397945895854
