9
Coordinates from ORCA-job c5h4_47
  C   0.08424667941155     -0.45990540077012      1.20566821587251
  C   -0.30853930769127     -1.08152359531708     -0.00000003945185
  C   0.08424673256538     -0.45990543076926     -1.20566822963993
  C   0.08776838724064      0.84607915333162     -0.73698800050659
  C   0.08776819876687      0.84607918496015      0.73698805772544
  H   -0.13943480111855      1.73349296424011      1.33460616823085
  H   0.03556451512919     -0.82546987296653      2.22811014803481
  H   -0.13943485729602      1.73349285564754     -1.33460614042314
  H   0.03556445299221     -0.82546985835644     -2.22811017984209
