9
Coordinates from ORCA-job c5h4_32
  C   -1.42668150386897     -0.03475891700530      0.10964830185677
  C   -0.53606952201565      1.01922846943803     -0.09373667338674
  C   0.63894509268871      0.03554311701299     -0.25428996323845
  C   -0.42724576305606     -1.02143919336277     -0.10282388098253
  C   1.85873886234688      0.12479472248720      0.16703220319086
  H   2.80794161249389     -0.38118479098266      0.30649885360908
  H   -0.53493447361149      2.05952292955740      0.24358551131627
  H   -2.46769037815106     -0.08414159981438      0.43059448639718
  H   -0.34243392682626     -2.05212473733051      0.25608116123755
