9
Coordinates from ORCA-job c5h4_40
  C   -1.38168204870410     -0.09005485827293     -0.00025449391400
  C   -0.32778022418421     -1.18812500200791      0.00000580919285
  C   0.75088130620062     -0.17059239344093      0.00011781018642
  C   -0.31334045348877      1.00025069642344      0.00011087628529
  C   2.05472170620574     -0.04755318036072      0.00004399841832
  H   -2.04022463705023     -0.15109954360940     -0.88544642679814
  H   -2.04091095149516     -0.15117582315926      0.88441725331561
  H   -0.24293198096487      1.62404825516330     -0.90127446633847
  H   -0.24325271651901      1.62363184926443      0.90180963965211
