9
Coordinates from ORCA-job c5h4_25
  C   1.37053775810672      0.34751839862538      0.37043453334274
  H   1.43817939324813      0.28500600186459      1.46692326189428
  H   1.89517998145803      1.20535675000233     -0.08022071682493
  C   -1.37060926868238     -0.34741601016836      0.37046386168480
  C   -1.11672215852439      0.83116364121019     -0.46893324011441
  C   -0.00002019814569     -0.00005390024027     -0.26247222044941
  H   -1.43824648664707     -0.28474000190944      1.46694334047221
  H   -1.89533427769765     -1.20527014683407     -0.08006606010219
  C   1.11674525688429     -0.83121473255036     -0.46877275990309
