9
Coordinates from ORCA-job c5h4_33
  C   -1.52580269538967     -0.13136987217826     -0.27974028622983
  C   -0.57356406335044     -0.95670120701809      0.30401247842038
  C   0.55919559585624     -0.00202431129500      0.03834013056660
  C   -0.59517598722871      0.88297244307133      0.06576415154708
  C   1.88135389465469     -0.02887196752147     -0.11093064118520
  H   2.42342921536954     -0.97426176198100     -0.03438753732584
  H   2.44287231694070      0.87931717756798     -0.34107661157549
  H   -0.75824236726510      1.71043713322236      0.77641372121915
  H   -2.58557590958725     -0.18685763386785     -0.52339540543685
