9
Coordinates from ORCA-job c5h4_46
  C   -0.62350786470227      0.85422111861519     -0.44641716066149
  C   -1.36097209198747     -0.42085497746291     -0.00933916105972
  C   0.52332467278379      0.83696515855645      0.39012630996693
  C   0.05940526841117     -0.52043466389241      0.37340368157706
  C   1.39319182365371     -0.36737815759008     -0.20802599217373
  H   2.24069258809834     -0.66587212743262      0.41609890373064
  H   1.57726207119170     -0.37050352714800     -1.29228525398099
  H   -1.81428699004338     -1.04682592777471     -0.79082832382211
  H   -2.01912947740557     -0.25514689587091      0.85175699642340
