10
Coordinates from ORCA-job c5h5_29
  C   1.91430809164487     -0.59509143751765      0.00006458326072
  C   0.72912842057625      0.06331480489921      0.00005011159315
  C   0.00001413588661      1.25285360052460      0.00008585419584
  C   -0.72919066722919      0.06338891535082      0.00003874234669
  C   -1.91433699603872     -0.59508650620410      0.00008139654028
  H   -1.95173955789374     -1.68654506379814      0.00003158113193
  H   -2.85844346691211     -0.04464443917435      0.00014387446601
  H   2.85838508720876     -0.04460024336085      0.00012945269131
  H   1.95176304842116     -1.68655049111756      0.00000290344041
  H   -0.00013809566389      2.34160086039803      0.00023150033366
