10
Coordinates from ORCA-job c5h5_22
  C   2.77313512463225     44.09216973655627     -0.96697528001528
  C   1.30267346855789     24.83868982963712     -0.55937386568969
  C   -0.18906416968126      5.45191542846716     -0.14723517980301
  C   -1.64550252358196    -13.92457448107943      0.26691866142146
  C   -2.57521576577826    -36.72533192349604      0.76520280616775
  H   17.03247382559914     51.55560836336742     -0.96859728017651
  H   -10.18274700536621     53.64192654411643     -1.24053878513911
  H   -11.20510336596499    -42.92283095273044      0.91430421561562
  H   13.25417046225177    -43.56710101440434      1.09754178793097
  H   -10.60796005066590    -42.45716153043254      0.83878291967918
