10
Coordinates from ORCA-job c5h5_41
  C   -2.49834559274725     -0.02512930494189      0.00010039780019
  C   -1.22827507437447      0.34664552759706     -0.00008615571428
  C   -0.07859917444531     -0.56608582478112     -0.00004471823311
  C   1.17909939868024     -0.16820423628227     -0.00024256587913
  C   2.42502097831914      0.22893941783133      0.00013062524058
  H   -3.47619714405203      0.45536853879647      0.00013674432915
  H   2.97137919077335      0.40208936980713     -0.93533508316297
  H   2.97074081478930      0.40207976099988      0.93597269623033
  H   -0.98621096998494      1.42402423242010     -0.00027737768094
  H   -0.29604242695803     -1.64138748144670      0.00017543707019
