10
Coordinates from ORCA-job c5h5_49
  C   2.11281016714348     -0.26879808485486     -0.30841356280772
  C   0.99786447951537     -0.17629393779452      0.41774743089361
  C   -0.15636389792411      0.73727096412354      0.07874415379963
  C   -1.46159942927432      0.08197787098373      0.04348574857942
  C   -2.45508376365013     -0.62017971547550     -0.25976467690598
  H   2.92608536375745     -0.93959211375312     -0.01850239600903
  H   0.87368784212535     -0.78376833758417      1.32131548634556
  H   2.25462845971577      0.31959934805698     -1.22131058196589
  H   0.02654639147927      1.27069522033475     -0.87098866870373
  H   -0.23788561288813      1.53191878596318      0.85123706677413
