10
Coordinates from ORCA-job c5h5_128
  C   0.45814831105711     -0.72731589705282     -0.33349460985624
  C   0.45824496367683      0.72561709093967     -0.33674354676927
  C   -0.63463362976404      0.00130962811617      0.53210818153531
  C   1.62944167180218      0.00014364300998      0.15805639858250
  C   -1.98523297387591      0.00029597592868      0.06246446158596
  H   2.19677886259060      0.00219621741422      1.09547727633174
  H   0.28471147436588     -1.50723103689492     -1.07502655426077
  H   -1.92849361705588     -0.00226503280112     -1.05420549683288
  H   -0.43915143827099      0.00372985787466      1.61304388941886
  H   0.28526637547422      1.50213955346547     -1.08193999973523
