10
Coordinates from ORCA-job c5h5_35
  C   -2.06850081261974     -0.44906410122031     -0.00000103305446
  C   -1.06070285634787      0.61344723143501      0.00000360843278
  C   0.24952372270195      0.79811227512884     -0.00002089624501
  C   1.23693271004332     -0.29735435750085     -0.00007051727527
  C   2.54305279547673     -0.37007878357718      0.00003539673681
  H   -2.71861846771045     -0.38850849944562     -0.88962648284993
  H   -1.59275830538096     -1.45200552829677     -0.00003226238130
  H   -2.71858410285414     -0.38854792852665      0.88965205045894
  H   0.89659012614972     -1.35585998273125      0.00004509338798
  H   0.66614519054144      1.81165967473478      0.00000504278947
