10
Coordinates from ORCA-job c5h5_97
  C   -0.65492648807869      0.86869342086561     -0.02079848985161
  C   0.44055584501252     -0.05065613589086      0.08841843850043
  C   -0.61703273415520     -0.93865437008438     -0.30299033014996
  C   -1.66877840129531     -0.11155740877174      0.23241354272803
  C   1.91626195691755     -0.01639887290551      0.05426282735921
  H   2.30897653725623     -0.96240608326666     -0.34701132278450
  H   2.28978916450912      0.81846854911023     -0.56427553140160
  H   2.33238242158907      0.12454088400480      1.06800740215444
  H   -0.72068155352449      1.72356207864524     -0.71670249487263
  H   -2.75691674823081     -0.13529206170675      0.23340595831820
