10
Coordinates from ORCA-job c5h5_125
  C   -0.00015681160861      1.10310505057541      0.00000009064841
  C   -0.00002462022767      0.23843997315747      1.27250050500256
  C   0.00014761731783     -1.12107258921141      0.61471278162605
  C   0.00014707701452     -1.12107454012982     -0.61471408294378
  C   -0.00002485952675      0.23843981816871     -1.27250007545841
  H   -0.88380403711772      0.41548287167902     -1.91520748462147
  H   0.88372856231155      0.41570247807279     -1.91518345118590
  H   0.88372845402164      0.41570302433620      1.91518408542151
  H   -0.88380401230385      0.41548268700634      1.91520757943045
  H   -0.00042736988095      2.20001122634530      0.00000005208058
