10
Coordinates from ORCA-job c5h5_108
  C   -0.30665967647401     -1.13514445589307      0.03610457855708
  C   0.49641677983506      0.22493372601991      0.48387166310234
  C   -0.73514205791655      1.00117273821685     -0.02863053581507
  C   -1.36272566764727     -0.13884563045426     -0.30720101266338
  C   1.74548471562993      0.16408511461101     -0.24148627443229
  H   1.65213197047311      0.43598395892998     -1.31332605236282
  H   -0.46800219032887     -1.81432352075408      0.88634935671694
  H   0.13125468796414     -1.68406282153623     -0.81096394328639
  H   0.58172560959797      0.22430880559579      1.58347744619968
  H   -0.94544417113350      2.06846208526410     -0.09136522601610
