10
Coordinates from ORCA-job c5h5_50
  C   1.95100681464292      0.60369417566875      0.00201897312925
  C   1.38241420233875     -0.64367504766760      0.00023518765946
  C   -0.00758864331226     -0.91911206484104      0.00200331076002
  C   -1.00859691844863      0.06007413319116      0.00417008066781
  C   -1.88836397402704      0.90943720010060      0.01438436481022
  H   3.03596801347563      0.72881615710511     -0.00150621273153
  H   2.04280619620147     -1.51785829144051     -0.00536853729144
  H   -2.65855546891199      1.65701333787505     -0.01858855685479
  H   -0.33087447463624     -1.96533087138830     -0.00383477121391
  H   1.33235425267737      1.50543127139678      0.00650616106491
