10
Coordinates from ORCA-job c5h5_134
  C   1.36554052001400      0.00050540366636     -0.79911478745875
  C   1.54216606815603     -0.00025391295825      0.48115848155737
  C   0.07654633865296      0.00000565376064     -0.08796630047540
  C   -1.17246634844242      0.77242518239322      0.05062777729878
  C   -1.17237640093281     -0.77273115718996      0.04969105077572
  H   -1.56622771945294      1.29606633365632     -0.82852994245562
  H   -1.38750700545643      1.27178738728696      1.00281317429500
  H   -1.56607189473738     -1.29534887261973     -0.83010491076485
  H   -1.38735868805040     -1.27327528854824      1.00126868217629
  H   2.06382513024940     -0.00100072944733      1.43232677505146
