10
Coordinates from ORCA-job c5h5_112
  C   -0.59650717090334     -0.96769206802409      0.13517179292231
  C   0.77308940760586     -0.79940339401911      0.05774277058750
  C   -0.07735120236541      0.48711398139964     -0.71367379209453
  C   -1.33226433062311      0.31255977094076      0.12362038686940
  C   1.11172742814466      0.64445257885789      0.21167205687715
  H   1.43549197087220     -1.56514823102469     -0.36196131774539
  H   2.04692196403834      0.99000793499035     -0.24230439301237
  H   0.92256181535293      1.07845660240122      1.20675829882169
  H   -2.30053605971711      0.27459791415252     -0.38825648902254
  H   -1.37183382240502      0.90416491032550      1.05754068579679
