10
Coordinates from ORCA-job c5h5_149
  C   -0.95619556660100      0.85059001937212      0.04935838957016
  C   -1.17519617708250     -0.64822521335656      0.10363284526764
  C   0.38894736806537      0.68647814947359     -0.37213575847945
  C   0.31432303429078     -0.72374092985417     -0.34473110369073
  C   1.53188909493702     -0.05947316213095      0.23638578166274
  H   -1.87741091189494     -1.12102665950039     -0.60300257515559
  H   1.72231492590324      0.00594272035207      1.32039225514974
  H   -1.37315373927018     -1.04775016141684      1.11498835815970
  H   -1.52312223786580      1.71916292433907      0.40188321408554
  H   2.44051420951800     -0.16630768727794     -0.36500140656975
