10
Coordinates from ORCA-job c5h5_116
  C   -0.71149325090764     -0.77460425023866     -0.26767061474438
  C   0.44038197139460     -0.13395097861485      0.45166023537935
  C   -0.71786026038705      0.77036366380190      0.08849791554553
  C   -1.86952464987370     -0.12079699167481     -0.06566459531775
  C   1.79908776688046      0.01157370420646     -0.19745968390304
  H   -0.60751162933616      1.71726984308682     -0.46407010099217
  H   2.35961942405412     -0.93393256508601     -0.13157196918228
  H   2.38860442071463      0.78704901916294      0.31681929602413
  H   1.70996399977502      0.28466749605499     -1.25988686463445
  H   0.47441220768570     -0.39172894069878      1.51823638182507
