10
Coordinates from ORCA-job c5h5_51
  C   -1.49871606587376     -0.63307794340874     -0.00002362009664
  C   -1.26634251383306      0.85532601603697     -0.00002013520156
  C   -0.24851900977308     -0.25323171879096     -0.00000336074062
  C   1.16320417893781     -0.56111633742895      0.00001648589938
  C   2.11261850398450      0.36541163389791      0.00002487724307
  H   2.16209008353592      1.45541166195693      0.00000288829550
  H   -2.24448245960592     -1.42381820920846     -0.00002454347727
  H   -1.43752679893329      1.43926070954781     -0.92016216373505
  H   -1.43755081487628      1.43925459686048      0.92012150139575
  H   1.43457489643717     -1.62656040946299      0.00002807041744
