10
Coordinates from ORCA-job c5h5_37
  C   2.33229300479593     -0.13574260720022     -0.00000327076882
  C   1.06549679749640      0.38731663460316     -0.00000521067406
  C   -0.11631280798998     -0.38266747691431     -0.00000218736274
  C   -1.42403797122024      0.17395702672222     -0.00000170720489
  C   -2.70701367766105     -0.12745691692076     -0.00000117371967
  H   2.49737275823368     -1.21739059367257      0.00000076501717
  H   3.21357420312295      0.50903658520416     -0.00000584180357
  H   -1.57356616936846      1.28954602356167     -0.00000230190791
  H   -0.04132640305283     -1.47397348881681      0.00000055091401
  H   0.95124026564360      1.47847481343345     -0.00000962248952
