10
Coordinates from ORCA-job c5h5_151
  C   1.26503680194557     -0.38945778446713     -0.24651973584075
  C   0.67395330573048      0.97377540265297      0.03100137471399
  C   -0.00008677036776     -0.56486666117034      0.52356365311791
  C   -0.67377497861911      0.97392958549503      0.03107007174838
  C   -1.26523024141471     -0.38915800065734     -0.24640656943159
  H   2.21528091671475     -0.63103069343975      0.24296418674514
  H   -0.00006897690444     -0.76923318918146      1.59716453778063
  H   1.21800141361692     -0.74197832873644     -1.28750266729204
  H   -1.21835959252324     -0.74166023662993     -1.28739962067617
  H   -2.21548187817848     -0.63047009386558      0.24318476913449
