10
Coordinates from ORCA-job c5h5_135
  C   -1.36410594229386      0.49199910987902     -0.41251300603292
  C   -1.33499192239289     -0.46398303910046      0.47701815494632
  C   -0.01090625916913     -0.02572511739017     -0.05054055304875
  C   1.20067686930447     -0.55094380299045     -0.61634884589761
  C   1.31836109606689      0.50815247129584      0.43935195616827
  H   1.65142158626254     -1.54281495480937     -0.70891661907681
  H   1.60020672187338      1.52522696784309      0.12768412489111
  H   1.69764834695424      0.23461251016174      1.43558405133790
  H   -1.87140302877914     -1.15582458336124      1.12402595727718
  H   -1.93310746782651      1.18489043847199     -1.02949522056470
