10
Coordinates from ORCA-job c5h5_3
  C   2.66336434886988     -0.23999780417009      0.00040427944059
  C   1.45010446698156      0.02945290403578      0.00020942537889
  C   0.15626902510229      0.31507355895199     -0.00001909455406
  C   -1.13078201515040      0.59217694974933     -0.00019707511112
  C   -2.25068142893668     -0.41780041028915      0.00005704685260
  H   -2.89428164666776     -0.28018241882002      0.88655144923969
  H   -2.89473895348307     -0.28017725108163     -0.88609744880406
  H   3.71371416626763     -0.46098254316595      0.00016288926763
  H   -1.86815518693072     -1.44824869533153     -0.00002652760192
  H   -1.44018277605271      1.65135571012126     -0.00053494410825
