10
Coordinates from ORCA-job c5h5_91
  C   0.71586933255624     -0.42335623765152      0.38875804331629
  C   1.83669857046574     -0.19816256604340     -0.31768933540223
  C   -0.61950271457050      0.16830383574202      0.02874957636045
  C   -1.80321887269196     -0.54174388475898     -0.18378643562707
  C   -0.26402296173687      1.46862793924254      0.12850646117374
  H   1.81688376713379      0.37998126973636     -1.24443106416775
  H   2.79947955078318     -0.59861941047245      0.01387130811626
  H   -2.73845289440165     -0.01212282548017     -0.37304583210532
  H   -1.80617496816547     -1.63284614862563     -0.16163475216456
  H   0.75200119062752     -0.98425197168877      1.33062203050018
