10
Coordinates from ORCA-job c5h5_131
  C   -0.53222060887589     -1.03107794480253     -0.00132432125100
  C   -0.40302303534523      1.07779857963323     -0.00138233096291
  C   0.62327094334442     -0.10746112042085     -0.00058464483439
  C   -1.44585078397257     -0.03320358380094     -0.00119287055866
  C   1.93352634833798     -0.19061835132623      0.00011193100086
  H   2.79795457242813      0.47093641961230      0.00045273041992
  H   -0.36394427120067      1.71396144060806      0.89898323210763
  H   -0.59440281891709     -2.12162087560787     -0.00156337788414
  H   -2.53749554165017     -0.01223944610241     -0.00099445831500
  H   -0.36339480414891      1.71346488220724     -0.90208588972231
