10
Coordinates from ORCA-job c5h5_58
  C   2.66881484261899      0.21685696313177      0.08594254200506
  C   1.36828262242735      0.03340640053451      0.03669838598089
  C   0.14978598831023     -0.28185695711411      0.00868277092231
  C   -1.26664671347386     -0.59836495396807     -0.02675751171863
  C   -2.20831012869792      0.56460710794038      0.03637089319143
  H   -1.89339863082506      1.55477659412450     -0.29785154543392
  H   -1.45091467820539     -1.18585785506887     -0.95868026371212
  H   -3.24658875378072      0.40407957021832      0.33599640611768
  H   3.31512437773422      1.08978762457100     -0.00095120974997
  H   -1.49875892610784     -1.32337449436943      0.78014953239726
