10
Coordinates from ORCA-job c5h5_107
  C   0.40275589342470      0.96621330718854      0.11697671878376
  C   -0.65875378580039     -0.21764985378299      0.45272496812268
  C   0.57365328342053     -1.05832596948044      0.00665383205481
  C   1.43701173626147     -0.07709445052640     -0.24766186159218
  C   -1.83975661534088     -0.03410337579199     -0.35327834207326
  H   -1.73517662576099     -0.32475053939774     -1.41671211467338
  H   2.47185380382483     -0.00024048252533     -0.58055759207119
  H   0.60280967320296      1.54531311827814      1.03226751878773
  H   0.07953038872053      1.63635514901014     -0.69525063278854
  H   -0.85725775195276     -0.28573690297193      1.53514750544957
