10
Coordinates from ORCA-job c5h5_69
  C   -0.45235873240110      1.23322871309490     -0.03552442719701
  C   0.38677893172501      0.16081178939209      0.50651352239631
  C   -1.13164867253544      0.05982507271583     -0.19389292361430
  C   -1.34864558804885     -1.21604090557102     -0.04393774856033
  C   1.59990222220581     -0.36425272719228     -0.21224495319923
  H   1.81607342810034     -1.40450902964316      0.07132044119618
  H   1.46650986343786     -0.31134283643339     -1.30244335470884
  H   2.47358791800763      0.25330729648755      0.06202762725116
  H   -0.33343507012805      2.16765104011651     -0.57982129690568
  H   0.34747569963677     -0.01094841296703      1.58976311334174
