10
Coordinates from ORCA-job c5h5_62
  C   1.84240075237016      0.58900756295221      0.04230938509806
  C   0.47825404401093      0.18595213008731      0.02667240695306
  C   -0.93588933275215      0.61661979034800      0.02568729234775
  C   -1.94994196319140     -0.47355467418328     -0.01185272488531
  C   1.41706857939059     -0.76086140644811      0.01463730859806
  H   1.70794509673136     -1.81236908322700     -0.00223108170220
  H   -3.01444128012889     -0.23091973596443     -0.04463079562897
  H   -1.05715561256902      1.32395729409506     -0.82231602964313
  H   -1.06953483863594      1.27593915303738      0.91083279858989
  H   -1.64799544522565     -1.52288103069712      0.00886144027279
