10
Coordinates from ORCA-job c5h5_129
  C   0.63539621044602     -0.79626686291410     -0.11475152887610
  C   0.63540134514460      0.79626159651146     -0.11486498410571
  C   -0.52333659261040      0.00010369255425      0.46913846892309
  C   1.79752177190059     -0.00000985184803      0.09728754573335
  C   -1.84131610448937      0.00009224733179     -0.16824311267722
  H   0.51374233244304     -1.59748717143391     -0.85544931753228
  H   -2.75511778711802     -0.00015436971726      0.42865343275218
  H   -0.53775426357365      0.00012895263852      1.56458864178535
  H   -1.92974565530983      0.00024567990279     -1.25836750517330
  H   0.51387874316702      1.59736608697449     -0.85571164082937
