10
Coordinates from ORCA-job c5h5_142
  C   -0.18436124872884     -0.74379220169449      0.68358611748168
  C   -0.18436108746610     -0.74379203329376     -0.68359028487463
  C   1.07933833746778     -1.15812773460166      0.00000105883190
  C   -0.78387141807741      0.45337422865662      0.00000090746289
  C   -0.17202736068393      1.79904059990631      0.00000014358434
  H   0.02574957210252      2.31718882595848     -0.94284158405540
  H   0.02575416759064      2.31718823316570      0.94284079311720
  H   -1.88355199030805      0.42179021875970      0.00000062311951
  H   1.26803741152597     -2.23483782406731      0.00000026348788
  H   1.99003361657741     -0.53467231278959      0.00000196184464
