10
Coordinates from ORCA-job c5h5_15
  C   2.36895761097785     -0.02894252154720     -0.00000257002126
  C   1.05024880777157     -0.39890586804521      0.00000006974068
  C   -0.03186728174932      0.51285986427015     -0.00000030751221
  C   -1.37444753736129      0.12863630059501      0.00000151315194
  C   -2.55546369563157     -0.19460435696358      0.00000335875368
  H   2.66176978426446      1.02557695331884     -0.00000544227720
  H   3.16822874818483     -0.77321319778377     -0.00000217845982
  H   -3.59003472065916     -0.48142765675270     -0.00000356812029
  H   0.18857606342629      1.58740281438175     -0.00000362917683
  H   0.79991222077633     -1.46577233147330      0.00000275392131
