10
Coordinates from ORCA-job c5h5_130
  C   0.69997185428908      0.81820376811636      0.11124042899811
  C   0.70000077246935     -0.81827950954050      0.11155067395063
  C   -0.42783547664252     -0.00013222715153     -0.24683824643447
  C   1.83928319498429     -0.00005214915124     -0.27095531652438
  C   -1.89495686064279     -0.00009152273874     -0.02285011797425
  H   0.72138172373900      1.62893466163184      0.85403494809177
  H   -2.35868181021662     -0.89314039613516     -0.46964791296805
  H   -2.15838145920454      0.00608334527997      1.05418935683728
  H   0.72144283297796     -1.62877302418829      0.85459940028742
  H   -2.36034477175320      0.88689705387731     -0.47997321426405
