10
Coordinates from ORCA-job c5h5_98
  C   -0.69747499164765      1.04407480656286      0.20603934515878
  C   0.27960902940567      0.00000681385045      0.31926276393457
  C   -0.69737833170144     -1.04415172893985      0.20598867174828
  C   -1.38712185770239     -0.00006086077893     -0.50703540374753
  C   1.70421435615112      0.00007534332321     -0.14246318234623
  H   1.73773433317694      0.00013754178854     -1.24724524898294
  H   2.23483230392030      0.89713471405855      0.21134162772456
  H   2.23488564262054     -0.89699171767767      0.21124078786854
  H   -0.68835281004393      2.13317868391411      0.18758669134622
  H   -0.68817767417914     -2.13325359610126      0.18744394729573
