10
Coordinates from ORCA-job c5h5_152
  C   -0.29680887930197      0.68564653247455     -0.55514298472175
  C   -1.33163631185080      0.21583768001665      0.41120589648045
  C   1.11678130521252      0.67288907594556     -0.04742244169638
  C   -0.38899882748702     -0.78498490148231     -0.29640697690133
  C   1.04308366027590     -0.65266281862282      0.22490875064047
  H   1.81895562331077      1.46824225535317      0.21206964573147
  H   1.68116234731170     -1.33526090708252      0.79716093861934
  H   -0.78027291919495     -1.55555579687909     -0.96573940661951
  H   -1.22332103762471      0.42543553333078      1.48393486075481
  H   -2.36675496065145      0.18877334694602      0.04877171771244
