11
Coordinates from ORCA-job c5h6_38
  C   -0.44594692527107      1.06382242201808     -0.00000217270338
  C   -1.63231798945093      0.03251572827268      0.00000155548951
  C   -0.76403658028377     -0.98716898882995     -0.00000436060274
  C   0.43691373912566      0.05238781570876     -0.00000003523822
  C   1.90730907992993     -0.10893682077133      0.00000201064925
  H   2.24395559944793     -0.68040181073159     -0.88496676608226
  H   2.41707168678587      0.86694307470185      0.00000394972435
  H   2.24395316737039     -0.68040420835710      0.88497016464307
  H   -2.72044684895008      0.11737609010820      0.00000268891297
  H   -0.84441218819950     -2.07523695682250     -0.00000714849988
  H   -0.36908274050441      2.15205365470291      0.00000011370731
