11
Coordinates from ORCA-job c5h6_44
  C   -0.46452239784417      1.23611995344802     -0.11357998357360
  C   -1.07102742436147     -0.08754207696543     -0.20138247268386
  C   -1.27265323477051     -1.33502139832965     -0.03184237531396
  C   0.35836530367134      0.14577513796622      0.50081389246016
  C   1.61038825907699     -0.34929707950234     -0.16920496476015
  H   0.31990558791654      0.07163119294729      1.59199610065061
  H   2.46457997223996      0.28491946983440      0.12540667908176
  H   -0.09508569150694      1.67006587169305     -1.05094806125807
  H   -0.95668816052851      1.95350248821876      0.55364422844440
  H   1.83354663434204     -1.38524694397449      0.12284112616918
  H   1.50907115176473     -0.31389661533582     -1.26416416921647
