11
Coordinates from ORCA-job c5h6_18
  C   1.84526324299196     -0.88932429311211      0.25689846188349
  C   1.21230639539331      0.00488865470396     -0.45506533080256
  C   0.24864939558450      0.86102613077415      0.38969410997056
  C   -0.99362820362917      0.61304209471023     -0.37287442258287
  C   -1.69929630136615     -0.60738407997386      0.03197349380692
  H   1.31479569385679      0.19657124320199     -1.52987544554430
  H   0.24443845186969      0.47787705830040      1.43632019334638
  H   -2.23285709258936     -1.10563751163521     -0.79380635866538
  H   -1.15857504745332     -1.34239495621688      0.66317843043670
  H   -2.51524477953260     -0.15079036223085      0.64252102393553
  H   0.61447824487434      1.89956602147818      0.37083584421552
