11
Coordinates from ORCA-job c5h6_29
  C   0.29679943135900     -0.00000124853225      0.43197588356296
  C   1.57534689485127     -0.64812419764838     -0.06237167215805
  C   1.57534655964796      0.64812622901516     -0.06236779500801
  C   -0.93368554965672      0.00000140300392     -0.40033656515322
  C   -2.18231327006045     -0.00000224966948      0.08026723261442
  H   -3.05265199004064      0.00000003688610     -0.58115283825285
  H   -2.37646752651922     -0.00000760513297      1.15842696625514
  H   -0.76842337830276      0.00000664931759     -1.48610970848423
  H   2.06966859043577     -1.59493958210754     -0.26744079683080
  H   2.06966545216846      1.59494598079753     -0.26742304236584
  H   0.09191478611732     -0.00000541592968      1.51593233582048
