11
Coordinates from ORCA-job c5h6_13
  C   -2.59408292514338      0.14843738381312      0.01037181224165
  C   -1.15663276991325     -0.02224848805686      0.01224246316836
  C   0.06322992004360     -0.26243444681669      0.00043600344553
  C   1.35953845512117     -0.64643301995828     -0.02761105915952
  C   2.44878696950836      0.35284231998792     -0.02221508490201
  H   -2.91913418317645      1.11363025232993      0.43692311425317
  H   3.36378491600412     -0.01360890588328     -0.51584303365747
  H   2.19933936630641      1.37595809931270     -0.36642665871684
  H   2.72028103929774      0.42961821427677      1.05355082934240
  H   -2.93214234658147      0.13498970706115     -1.04260805725142
  H   -3.12341844146683     -0.67385111606650      0.52435967123616
