11
Coordinates from ORCA-job c5h6_40
  C   -0.58971045995157      0.85322242788592     -0.04448143122130
  C   -1.68748118711023     -0.09644076599200      0.22431129439752
  C   -0.50626567817003     -0.90070653419473     -0.39207197916669
  C   0.49238943439967     -0.06297210727286      0.04051469669251
  C   1.96960179003922     -0.00962649599925      0.08952715814513
  H   2.40165401215796     -0.94997530346998     -0.28176770261990
  H   2.36184080717524      0.83118812883090     -0.50689674107939
  H   2.30812644753119      0.14447263154084      1.12813868399716
  H   -0.66116709772944      1.66393858476024     -0.78903279772245
  H   -2.62407926329302     -0.01575167735366     -0.34583013543073
  H   -1.85932880504900     -0.36173888873541      1.27283895400814
