11
Coordinates from ORCA-job c5h6_49
  C   -0.95417404434685     -0.86701044380873     -0.08196688453284
  C   0.34605868232427     -0.69806374920317     -0.45798865445768
  C   0.33063699959843      0.81032684234475     -0.22518315430128
  C   -1.14480253448672      0.60815942736425      0.20763035263578
  C   1.44414956094956     -0.09860967388586      0.31361801626253
  H   1.54541145116071     -0.37063848604414      1.37368925036315
  H   2.40013716455741      0.09193596660026     -0.18639712587565
  H   -1.36286689254205      0.78902897054813      1.27876805862507
  H   -1.86272190208935      1.19041252228284     -0.39537110031920
  H   -1.50562181226204     -1.76123234787270      0.23189417766370
  H   0.61244332713663      1.51936097167437     -1.01087293606357
