11
Coordinates from ORCA-job c5h6_12
  C   2.76511326236563      0.16444825606674     -0.00010031854159
  C   1.43320365923438     -0.01786040101715     -0.00003622426687
  C   0.23575260559712     -0.37904197319619      0.00001236277116
  C   -1.18837999572809     -0.63736556450986      0.00004896671504
  C   -2.11260331067120      0.58994572660649     -0.00000062478205
  H   3.06518090326077      1.23054775245702      0.00004485537500
  H   -3.16967091873721      0.27957377414684     -0.00004075259092
  H   -1.40290550257547     -1.29067119816872     -0.86934539089688
  H   -1.40302688670665     -1.29074120217581      0.86935657326965
  H   -1.93408473896294      1.21236393405260      0.89005571641554
  H   -1.93399907707634      1.21237089573805     -0.89003516346809
