12
Coordinates from ORCA-job c5h7_62
  C   0.61758653563634     -1.02264963197501      0.07613706644982
  C   -0.45729842357283      0.00000135244728      0.48216667733597
  C   0.61758979058205      1.02264894130350      0.07613647427312
  C   1.51516138688247     -0.00000141043981     -0.25855398075091
  C   -1.76740995297786      0.00000249188844     -0.29906033516386
  H   -2.37195729526949     -0.89021430987722     -0.05678736824779
  H   2.54267338598418     -0.00000204665791     -0.63281036237716
  H   0.64652528403381     -2.11361761258594      0.05953306514535
  H   -2.37195617099082      0.89022070695697     -0.05679002217867
  H   0.64652927334434      2.11361689165776      0.05953135289410
  H   -1.57620280348567      0.00000221563127     -1.38445192809104
  H   -0.66302101016650      0.00000241165067      1.57003936071105
