12
Coordinates from ORCA-job c5h7_69
  C   1.78124529534816     -0.00000502179682     -0.09742468678785
  C   0.60003991330454      0.77106593804272      0.25926407924565
  C   0.60003573288750     -0.77107579351450      0.25925817682008
  C   -0.46357488999837     -0.00000252599928     -0.48141111570731
  C   -1.88161996332656      0.00000060984127      0.05153500596580
  H   -1.89382086909978     -0.00000077582226      1.15378275772932
  H   -2.43248225661281      0.88907476048407     -0.29540409030118
  H   2.53126404903623     -0.00000322772193     -0.89579695779083
  H   0.44419019668343     -1.45660388032797      1.09610696782850
  H   -2.43248694157189     -0.88907019289721     -0.29540547398712
  H   -0.39470499895476      0.00000050108163     -1.58025930561420
  H   0.44418473230432      1.45658960863029      1.09611464259915
