12
Coordinates from ORCA-job c5h7_7
  C   2.62238128388185     -0.21020204536880      0.00000348791052
  C   1.44985076523656      0.40559591042207     -0.00000115174770
  C   0.13984142270746     -0.25329828887800     -0.00000001618301
  C   -1.03036608174871      0.41041974555012     -0.00000457710833
  C   -2.38484079751204     -0.22596407110906     -0.00000392974772
  H   -2.31995216245506     -1.32503111214364      0.00000033355228
  H   2.99662386236954     -1.23516889475268      0.00000871282753
  H   -1.00389370108636      1.50842857569163     -0.00000927327685
  H   0.13776704457933     -1.35009018422861      0.00000459654141
  H   1.43025863325814      1.50665009189403     -0.00000605710354
  H   -2.97142884529292      0.08324154444798     -0.88371143183522
  H   -2.97143142393779      0.08324872847495      0.88369930617062
