12
Coordinates from ORCA-job c5h7_19
  C   -1.97602698553081     -0.71086387983089     -0.07149653793232
  C   -1.35257534487867      0.44711528113204     -0.10831640786126
  C   0.01642198952992      1.00049478715720      0.00991587148598
  C   1.01546454688638     -0.03978602537369      0.46463973130252
  C   2.02162128028476     -0.50523142775971     -0.27900152452264
  H   2.20193830671014     -0.13595941362897     -1.29445583798238
  H   2.70569001115237     -1.26992343567114      0.10011618284445
  H   0.32776684477648      1.42945773140820     -0.95934279306512
  H   -1.42765206622510     -1.65599853512407      0.07869195259076
  H   -3.06275544216236     -0.79320279071137     -0.19515685175456
  H   0.85286122941985     -0.44175782718955      1.47226048852966
  H   0.00161563003704      1.84322553559195      0.72718572636490
