12
Coordinates from ORCA-job c5h7_25
  C   -2.76250406636047     -0.31341373660528      0.11846503101170
  C   -1.60658050232564      0.11152581414605     -0.12400340100723
  C   -0.23078896642038      0.57859583086822     -0.00883507334300
  C   0.83708071114992     -0.52713311006506     -0.05558447643190
  C   2.25374092109045      0.03146060097064      0.05386564836451
  H   -0.13591071800209      1.16540139308570      0.92537441133467
  H   0.72041500673702     -1.09619221294350     -0.99316336370689
  H   2.39441322403943      0.58504016235001      0.99754681577341
  H   3.00385253216077     -0.77395632028550      0.02471521794770
  H   2.47728694949175      0.72615980035604     -0.77337273042960
  H   0.64082500797274     -1.24038509871826      0.76233706777827
  H   -0.05690009953352      1.31359687684092     -0.82014514729164
