12
Coordinates from ORCA-job c5h7_51
  C   -2.30116232667344      0.12019102067858     -0.00000253275547
  C   -0.96060537395788     -0.48341835543554     -0.00000097623536
  C   0.30090502724631     -0.18072512296916     -0.00000474385432
  C   1.36600685509577      0.87184177793944      0.00000155901047
  C   1.71603286911519     -0.60948476840649      0.00000231484796
  H   -2.88196028893196     -0.18563802483968      0.88730195178475
  H   -2.88196236677404     -0.18564634512873     -0.88730279133333
  H   2.12378151814197     -1.04330893640612      0.92096820136352
  H   1.52463994347395      1.44305311371677     -0.92213991159725
  H   -2.24501211902803      1.22760966968218     -0.00000777255800
  H   1.52462693961360      1.44305008174278      0.92214718438514
  H   2.12378932267856     -1.04330411057404     -0.92096248305812
