12
Coordinates from ORCA-job c5h7_37
  C   -2.38069816216058      0.00000196388064     -0.09001304146890
  C   -1.12734126287738     -0.00000730156903     -0.07126732986942
  C   0.27539079803829     -0.00000114715026      0.35134434722372
  C   1.00117834064914      1.27928726947096     -0.10684174664066
  C   1.00118558521943     -1.27928589944631     -0.10684257543851
  H   2.03547468791734     -1.28202490556092      0.27154313462057
  H   0.49037614923920     -2.18065711341203      0.26220699340772
  H   2.03546733427508      1.28203301948427      0.27154429067589
  H   1.03793293805340      1.33150835317430     -1.20640389300212
  H   0.49036276419159      2.18065516699076      0.26220742184391
  H   1.03794037618762     -1.33150650991343     -1.20640469884565
  H   0.25261045126687     -0.00000289594894      1.45921709749344
