12
Coordinates from ORCA-job c5h7_72
  C   -0.93257220539687      0.00000545318714     -0.73373148736417
  C   -0.75392808510963     -1.15616562866253      0.18307847422249
  C   -0.75391864336291      1.15616529681426      0.18309007142566
  C   0.24338998920344     -0.00000349854545      0.10626612983478
  C   1.73521869106268     -0.00000963237846      0.01111000081693
  H   2.08724953669921     -0.89363606715843     -0.52942199527147
  H   -1.39801061023602      1.28632607010200      1.06930005067053
  H   2.08725829797213      0.89362194977241     -0.52940774416652
  H   -0.40440533823339      2.09402017858847     -0.26520245623219
  H   -0.40442084828941     -2.09401722850294     -0.26522526551988
  H   2.20603025068791     -0.00002001479882      1.00827677982594
  H   -1.39802103499714     -1.28632687841763      1.06928744175788
