12
Coordinates from ORCA-job c5h7_79
  C   0.00001173762718     -1.52701225135690     -0.00000002826722
  C   -0.00000175667212     -0.49840886808045      1.10267516636343
  C   -0.00000393929573      0.56581341321204      0.00000004875541
  C   -0.00000174621341     -0.49840879337949     -1.10267509949092
  C   -0.00000225444923      1.89605323795134      0.00000000822420
  H   -0.00000125985845      2.46503647222641      0.93495775161609
  H   0.89033140665500     -0.48785770738576      1.76458093408460
  H   0.00001284295294     -2.61821183775390     -0.00000003536972
  H   0.89033144645320     -0.48785756343956     -1.76458082419678
  H   -0.89034741218145     -0.48787112779549     -1.76456425868216
  H   -0.00000158963925      2.46503623999269     -0.93495790278023
  H   -0.89034747537869     -0.48787121419094      1.76456423974331
