12
Coordinates from ORCA-job c5h7_55
  C   0.63544428849176     -1.04807326459717      0.00000417261730
  C   -0.44260006403990      0.04800242488185     -0.00000037572623
  C   0.54152094230194      1.04866004236014      0.00000100423606
  C   1.60758382978373      0.13658592689789     -0.00001175449956
  C   -1.92395528735897      0.00158988662925     -0.00000284949536
  H   -2.31494886096035     -0.53600760834703     -0.88484162985796
  H   -2.31495511272523     -0.53597369148367      0.88485408927399
  H   2.69479664984688      0.21722062635195     -0.00002817209583
  H   0.65928662171681     -1.69259362890006      0.89793419757808
  H   -2.35683068675220      1.01427003909029     -0.00002283985971
  H   0.65927727833953     -1.69261409937090     -0.89791091483097
  H   0.48748040135600      2.14137334648747      0.00000507266018
