12
Coordinates from ORCA-job c5h7_53
  C   0.50039796205045     -1.04453862662414     -0.00000128410612
  C   -0.58290625316550      0.03778869632274     -0.00000219131876
  C   0.37472522972330      1.06325600768901     -0.00000150874595
  C   1.55129253705076      0.11786804137265      0.00000167073225
  C   -1.95976279921444     -0.01224871521489     -0.00000282073113
  H   -2.49295113105358     -0.96627552226241     -0.00000296179009
  H   -2.55427409613740      0.90560974367342     -0.00000299688802
  H   0.29736894470933      2.15415448339122     -0.00000235729692
  H   2.20201291935763      0.15999563121519      0.89260914885648
  H   2.20202177210576      0.15999561824149     -0.89259930331954
  H   0.51807369052435     -1.68534557973343     -0.89635289713097
  H   0.51807122404933     -1.68534977807084      0.89634750173877
