12
Coordinates from ORCA-job c5h7_32
  C   -2.00275872394905      0.00887315051691      0.00000942293985
  C   -0.82012584618499     -0.61911898178840     -0.00000525203525
  C   0.52732414784014      0.00292000373682     -0.00000002662303
  H   -2.09266844888148      1.09887434214684      0.00002657642462
  C   0.69272360953806      1.39389063747587     -0.00000206601498
  C   1.62959885909282     -0.84758790676758      0.00000634977130
  H   2.64798254775326     -0.45124827053838      0.00001301025882
  H   -0.15443516544151      2.08145671246934     -0.00001044277187
  H   1.69440448900806      1.82984190367461      0.00000334086879
  H   -0.81550528748335     -1.71526426021065     -0.00002052062618
  H   -2.93766828629201     -0.55750312504380      0.00000459934027
  H   1.50873810500004     -1.93356420567158      0.00000500846768
