12
Coordinates from ORCA-job c5h7_52
  C   -2.14692637099179      0.30249413235116      0.00000117591047
  C   -1.07141750530606     -0.57376290226756      0.00000194367419
  C   0.25271135952726     -0.18931914003393     -0.00000003625299
  C   1.21828127631813      0.90735635553018     -0.00000391485164
  C   1.66176654591037     -0.56849626417701      0.00000149904491
  H   -3.17554884638168     -0.06452569676755      0.00000221603273
  H   2.11094032859076     -0.97049984221729      0.91879079478265
  H   1.36740556267148      1.49036139657521     -0.91920759399694
  H   -1.98824456826081      1.38446054206664     -0.00000085914606
  H   1.36740848920104      1.49037102850839      0.91919318435100
  H   2.11094378007784     -0.97050768995254     -0.91878262122790
  H   -1.27656005135654     -1.65159191961571      0.00000421167957
