12
Coordinates from ORCA-job c5h7_22
  C   -2.57351208046620     -0.25333987364935      0.02293937311130
  C   -1.43543273859309      0.16067366612716     -0.01246387843435
  C   -0.05304602890380      0.63192781242397     -0.05636175135945
  C   0.98612895336469     -0.50562743473651      0.02259063392609
  C   2.39075721577242     -0.01600778348568     -0.00543310063933
  H   -3.58421975407265     -0.61397315184919      0.05420980115646
  H   0.11748335703955      1.33930431814093      0.77547879139135
  H   0.10809682525733      1.21009557460861     -0.98344279683484
  H   0.79173956190401     -1.08453780324655      0.95182383866842
  H   0.80756556098201     -1.22433310975565     -0.79705374308987
  H   2.64812364669286      0.96332622275655      0.40968908280611
  H   3.20986548102286     -0.68155843733427     -0.28863625070188
