12
Coordinates from ORCA-job c5h7_11
  C   -2.62586155367527     -0.16274959641942      0.00036565862965
  C   -1.35809571387404      0.15111343169504     -0.00054532482925
  C   -0.04360197282245      0.47818939948305      0.00017604569974
  C   1.03005508856571     -0.42147826280884     -0.00041822630440
  C   2.46298027555332     -0.00275202169641      0.00015649381557
  H   2.56787670873183      1.09372540744591      0.00119874099350
  H   -3.19145643235508     -0.30175964522593      0.93394589150138
  H   0.80677009107912     -1.49379950435021     -0.00138835360614
  H   3.00218472886496     -0.39347670077775     -0.88351934183450
  H   3.00196015170527     -0.39514066451547      0.88322829297414
  H   -3.19190130240426     -0.30576004272927     -0.93232635603900
  H   0.19384993063088      1.55253819989930      0.00107647899931
