12
Coordinates from ORCA-job c5h7_42
  C   -2.06291166252759      0.36311727571364      0.00793694837647
  C   -0.92300903529884     -0.57150189032117     -0.21383026374717
  C   0.36124751082407     -0.14096191011387      0.49101551269669
  C   1.33833346240615      0.81332192520752     -0.14929575875332
  C   1.72604375288953     -0.42583566337728     -0.08070261352386
  H   1.53269152237514      1.84173444257579     -0.44505088372904
  H   -1.88259036946087      1.43863568493928      0.09975333237719
  H   2.47994680986334     -1.18513470294664     -0.27646355953966
  H   0.24758409875467     -0.10740940742358      1.58908479154459
  H   -1.20425757813711     -1.59174570106481      0.11049346317948
  H   -0.70262353453414     -0.66351484221204     -1.30110477917258
  H   -3.09971497715434      0.02269478902316     -0.06114618970878
