12
Coordinates from ORCA-job c5h7_38
  C   -2.20159841124618      0.08591210605803      0.06251656732490
  C   -0.95284190523027     -0.17590793539990     -0.34215679483528
  C   0.27598331100474      0.16665735510715      0.40734625579081
  C   1.57414775179648      0.55065533810952     -0.34362779305705
  C   1.45440489670399     -0.72545333841897      0.35682732309965
  H   2.15645532971916      1.36491374910629      0.10696744377918
  H   1.57030998220975      0.56913338262468     -1.44227978016031
  H   0.10451445613891      0.72459028811819      1.33842036324552
  H   -2.39869982048305      0.59756084613050      1.01037573651583
  H   -3.06802407652455     -0.20040939686825     -0.53916160566603
  H   -0.79428957865399     -0.69451105192252     -1.29680118604931
  H   1.54539806456502     -1.75401134264472      0.00043347001209
