12
Coordinates from ORCA-job c5h7_59
  C   -0.64606072103150      0.95702374828731      0.02632136838129
  C   0.47683556310307     -0.04870659688955      0.49234696597750
  C   -0.58133899487964     -1.07640257515326      0.12757380244179
  C   -1.54732422587166     -0.24459241518667     -0.26490186167707
  C   1.78246233505372     -0.04837191303872     -0.28499394969133
  H   2.36739059204575      0.86169937277862     -0.07196752886190
  H   -2.56979568122386     -0.33415941600567     -0.63308559442985
  H   -1.00371929306732      1.62771792461394      0.82674906533286
  H   2.40109052139878     -0.91846193355538     -0.01227349636788
  H   -0.35517136716200      1.54608834944029     -0.86049557977395
  H   1.59478874337217     -0.09411025559652     -1.37003988582598
  H   0.66512252826250      0.01085571030561      1.57803669449451
