12
Coordinates from ORCA-job c5h7_44
  C   2.02878930882235      0.34657797636103     -0.05957318409467
  C   0.87230473203627     -0.62362065469361      0.19210747374823
  C   -0.42782112020142     -0.15343080803996     -0.39481779751223
  C   -1.41047094672519      0.82223055969103      0.08896466482437
  C   -1.81837339537800     -0.42638962830070     -0.02743557631117
  H   -1.65205616465983      1.85238220873657      0.34470631049130
  H   1.81929173073382      1.33414666227659      0.38415833959226
  H   -2.63065882944090     -1.14528082717072      0.06713871507949
  H   0.74409218415679     -0.77562562469886      1.28679668263544
  H   2.96964920926407     -0.02627287620263      0.37596606985446
  H   2.18686331247485      0.49723076727851     -1.13954352788241
  H   1.11776997891718     -1.61674775523726     -0.22359817042507
