12
Coordinates from ORCA-job c5h7_63
  C   -0.64958629785383      1.09458900941030      0.03166656485246
  C   0.35720169787268      0.02159913034940      0.47955203893949
  C   -0.68201270411274     -1.06822005387173      0.00809441789483
  C   -1.50097032070557      0.14666736389717     -0.36070331275297
  C   1.70642546833771      0.00670010292094     -0.22675704090471
  H   2.29770333474331      0.89889219580465      0.03725976717269
  H   -0.62522419102702      2.18489170340162      0.04916816800771
  H   2.29152099799720     -0.88448277058550      0.05516164043859
  H   -1.09300624661154     -1.70817871428164      0.80473283027010
  H   1.57410209874617      0.00169536417734     -1.32116391516695
  H   0.47992714820089     -0.00126939657027      1.57802445008298
  H   -0.34094098558726     -1.69448393465228     -0.83141560883423
