12
Coordinates from ORCA-job c5h7_31
  C   1.94276658490287      0.10546965632474      0.00000464737458
  C   0.85046448841232     -0.67488139542296     -0.00000013503706
  C   -0.54291413035128     -0.19803326819759     -0.00000317365906
  H   1.88266745197993      1.19705610036217      0.00000673769315
  C   -0.80238309460137      1.29786738936231     -0.00000160814436
  C   -1.54979504320593     -1.06643940247246     -0.00000727673505
  H   -2.63978793804654     -1.02083755258854     -0.00001012155832
  H   -0.35030698896022      1.76871985987146     -0.88900669554776
  H   -1.87825144137055      1.52154724107788     -0.00000456413807
  H   -0.35031231553357      1.76871706628236      0.88900767397706
  H   0.97004628969494     -1.76325024593255     -0.00000212883206
  H   2.94464613707940     -0.33126544866682      0.00000664460695
