13
Coordinates from ORCA-job c5h8_8
  C   1.49896736520080      0.73349475898978     -0.08878644009129
  C   1.50532199728861     -0.72861313734435     -0.06459744632823
  C   0.20630826551728      0.01122535834805      0.38666027490140
  C   -0.86712613274140     -0.04141860237537     -0.55238696463115
  C   -2.21158280917635     -0.02845027128550      0.06601284725709
  H   -2.51242882848103      1.03817257756030     -0.03426584405643
  H   -2.96252297004254     -0.58042148284389     -0.52355483009201
  H   1.41677287683539      1.24258175157166     -1.05064803681042
  H   1.42392756228226     -1.27196347677221     -1.00746396961300
  H   -2.29094439866907     -0.29172430299461      1.14393540854642
  H   2.02106174091264     -1.24940336602928      0.74630268523084
  H   0.04853800335545      0.02069856578329      1.48150151307701
  H   2.01838732771797      1.28181162739212      0.70151080260974
