13
Coordinates from ORCA-job c5h8_31
  C   1.64258944880026     -0.86189543145034      0.15304253013070
  C   1.31828839944699      0.39917009227275     -0.17928207076915
  C   0.04904725331020      1.09229051766769      0.06455175855110
  C   -1.19504978120239      0.57367188350116      0.10127908789694
  C   -1.59938581679567     -0.85097347978756     -0.13018667755094
  H   -1.71701184205406     -1.39932852760606      0.82294651183472
  H   -2.57414491123159     -0.90208050876018     -0.64198749105435
  H   -0.85576086053717     -1.39792890901127     -0.72996813715282
  H   -2.01366745005720      1.27544168490096      0.30182420236812
  H   0.13644997006033      2.17756431471185      0.19602296277202
  H   0.95671963003890     -1.51792633103195      0.69405786415664
  H   2.63031008699750     -1.26690221028031     -0.08400392318522
  H   2.09074587322389      1.01090690487325     -0.66384661799777
