13
Coordinates from ORCA-job c5h8_34
  C   2.39605224076465     -0.20481691192493      0.00000355714261
  C   1.06169053525526     -0.36630413723880      0.00000221192369
  C   0.10831058131840      0.73577131239011     -0.00000303853404
  C   -1.23709196068243      0.64033568438272     -0.00000492452006
  H   -1.80585123391435      1.57819055417486     -0.00000835786930
  H   0.54927297950680      1.73974431451480     -0.00000545479171
  H   0.65737822881758     -1.38431703783104      0.00000544529964
  H   2.84874556298628      0.79241493972924      0.00000049568629
  H   3.07703721803664     -1.05971493615464      0.00000778807376
  C   -2.06461871503037     -0.60925935261884     -0.00000233802097
  H   -2.72696459383299     -0.63915024569465     -0.88356564798385
  H   -1.46147273613701     -1.52789235207067     -0.00000555983946
  H   -2.72695810708845     -0.63915183165817      0.88356582343341
