13
Coordinates from ORCA-job c5h8_18
  C   2.21157958372815     -0.02844479874782      0.06601057593652
  C   0.86712283078133     -0.04141323626300     -0.55238826425075
  C   -0.20631133055194      0.01122409663276      0.38665958006012
  C   -1.49897379903190      0.73348832754835     -0.08878357837430
  C   -1.50532123309628     -0.72861986409759     -0.06460003533567
  H   -2.01839670742503      1.28179982863317      0.70151544060571
  H   -2.02105754200324     -1.24941533732430      0.74629889461365
  H   2.29094258514507     -0.29172385794340      1.14393187474080
  H   -0.04854055267198      0.02069375305711      1.48150085091644
  H   -1.42392484702815     -1.27196620270652     -1.00746868804703
  H   -1.41678316756713      1.24257885792382     -1.05064365236120
  H   2.96252127802050     -0.58041090558985     -0.52355997946611
  H   2.51242290170061      1.03817933887727     -0.03426301903818
