13
Coordinates from ORCA-job c5h8_5
  C   1.65717574910302     -0.84134538752340     -0.06794456517180
  C   1.44630597938161      0.61251914251220     -0.11360737137875
  C   0.02200866352337      1.03435749414983     -0.00695256557257
  C   -1.05216121765821      0.10454966510188      0.49658652457433
  C   -1.94594927747356     -0.54015207721069     -0.25921409413098
  H   -1.98108820537773     -0.40442212455436     -1.34609977888970
  H   -2.68155320041938     -1.22242979267277      0.17682850159726
  H   -1.05862610860090     -0.06432515832996      1.58176819772486
  H   0.81359940646369     -1.51642990025753     -0.31821359385713
  H   2.59853736197990     -1.17200318342198     -0.53430726289825
  H   1.82011470840573     -0.94975571007445      1.03341304534916
  H   -0.04674758158191      2.03310989038774      0.46237757728919
  H   -0.12193627774564      1.25045714189348     -1.09555461463563
