14
Coordinates from ORCA-job c5h9_24
  C   1.83394117684992      0.50961792930575     -0.04605513627636
  C   1.00356222320778     -0.72781615139830      0.01070697072835
  C   -0.46227018096823     -0.71473481620401      0.07678203752132
  C   -1.23468956009815      0.44151087622457      0.71390933768846
  H   1.97368623081402      0.97089967804667      0.95545509875708
  H   -0.64857048759425      1.28552556761171      1.08886736722202
  C   -1.30837160154830      0.23992105496005     -0.76660670465904
  H   -0.77818500295485      0.94625094648845     -1.41233966498891
  H   -2.23083269461075     -0.15746917096651     -1.19985947709610
  H   1.50533568982399     -1.68925682675551      0.14984322758146
  H   2.84234725840191      0.30355843562591     -0.43888254308892
  H   1.38312260421130      1.29248590936108     -0.68202923022801
  H   -2.10722811725013      0.19316617488350      1.32548676409846
  H   -0.91328753828426     -1.70110960718336      0.22545195274018
