14
Coordinates from ORCA-job c5h9_15
  C   -2.02175451674182     -0.02053269720132      0.00001585925285
  C   -0.69861998379295     -0.71253278480055      0.00000748636736
  C   0.56311601641001     -0.10072514391937     -0.00000799232700
  C   0.67709694456977      1.41158239036674     -0.00002041270691
  H   0.19224038326113      1.85313921386558     -0.88638156068900
  H   -1.93274022124413      1.07503833001695      0.00013123084910
  H   0.19246355704003      1.85312954629448      0.88646961618031
  C   1.72119152300317     -0.86825635808415     -0.00000304808413
  H   2.71169155346434     -0.40746005337384     -0.00002062816708
  H   1.67082503920160     -1.96061453145323      0.00001789189977
  H   1.72941384678694      1.72965439342158     -0.00014885726164
  H   -0.72001972619225     -1.80877328850800      0.00000571050472
  H   -2.62525247557929     -0.30726753615206     -0.88216927014249
  H   -2.62533194018657     -0.30745148047282      0.88208397432414
