14
Coordinates from ORCA-job c5h9_7
  C   -2.25275401912676     -0.51356941903946     -0.07713411147670
  C   -1.28069067546455      0.58352897378114     -0.19115475338846
  C   -0.01316034215004      0.86134497508361      0.04290474617673
  C   1.02095497043653     -0.10194213922653      0.59974209268139
  C   2.16549452369502     -0.36800004084506     -0.38440977946762
  H   -2.67964190281439     -0.77957040056061     -1.05961130879710
  H   0.53605599324251     -1.05181768409260      0.87971363196122
  H   2.92340336085326     -1.03769258997731      0.05393754773350
  H   1.78977150743730     -0.83493457699313     -1.30913898109496
  H   2.67135486797164      0.56964801533610     -0.66922953703694
  H   1.43458791282965      0.32260727156912      1.53319504420668
  H   0.36474693330559      1.86760031933218     -0.19768149222006
  H   -3.09592317643530     -0.24081544229089      0.58089033008208
  H   -1.78647995378045     -1.42892726207657      0.34210657064025
