14
Coordinates from ORCA-job c5h9_19
  C   1.85136343154037      0.19909144137534     -0.35709920793171
  C   0.78374253399139     -0.39394231167511      0.56996570084526
  C   -0.64312371268940     -0.19238259238045      0.06790534512755
  C   -1.14087182423878      1.23322098368870     -0.01266843365431
  H   -1.04126230342058      1.73299430480714      0.96702403013787
  H   1.74200356472046      1.28981428877244     -0.46524176971237
  H   -0.54774898720449      1.82133388647614     -0.73344252648284
  C   -1.39520050542844     -1.22233984643081     -0.27708642820089
  H   -1.28610660883287     -2.30793615983945     -0.30705407050437
  H   2.86223046454809      0.00682436743394      0.03704256272827
  H   0.97277119136780     -1.47017667476594      0.71030144527146
  H   0.86603680217376      0.07137148602814      1.57029621319556
  H   1.78853672325456     -0.24552082819710     -1.36341230292112
  H   -2.19428076978187      1.27563765470704     -0.32167055789836
