14
Coordinates from ORCA-job c5h9_2
  C   -2.03454173707934     -0.75826955663022      0.10031379826154
  C   -1.51716846054143      0.47100634665624      0.02311090853168
  C   -0.05066693852663      0.82105783442106     -0.03967224609711
  C   0.89538440929825     -0.30802264715830     -0.27429498058839
  C   2.31576809139801     -0.23656225251312      0.16713723027283
  H   -3.11566485676968     -0.91515253173196      0.14818716825367
  H   -1.40042792050245     -1.64923770686592      0.12627894622389
  H   -2.19936493319587      1.33085231949622      0.01162709761342
  H   0.22585348678783      1.35776313353000      0.89059399079752
  H   0.07689119130745      1.59440894386012     -0.83368285366486
  H   0.60978610709924     -1.06387057303791     -1.01408397707684
  H   2.82065808669513     -1.21307272051006      0.09760913670110
  H   2.90950650254352      0.47350475917276     -0.45037863489467
  H   2.40321697148596      0.12289465131108      1.20880441566621
