14
Coordinates from ORCA-job c5h9_36
  C   -2.65474083413891     -0.24863449846314     -0.10363132880179
  C   -1.38752174666659      0.49407659078388     -0.02980558978455
  C   -0.10112291629092     -0.36364887254824     -0.05361167125976
  C   1.18451679240613      0.49791503745064      0.04171708108888
  C   2.42952906127067     -0.31280808952867      0.00778567745618
  H   2.82043582218866     -0.77662441597469      0.91832756033594
  H   2.87148674954213     -0.62053859760852     -0.94452198101547
  H   1.13033631113459      1.08740631675453      0.97553289184899
  H   -0.12558999668523     -1.08799349156420      0.77823865019051
  H   -1.43108881038888      1.03186266838067      0.94761948371974
  H   -1.32986614149878      1.28954512698147     -0.79644505376600
  H   -2.66263646343443     -1.16736266313434      0.52209802042504
  H   -0.07367790931213     -0.95493794519117     -0.98454633139161
  H   1.17281008187370      1.22316283366178     -0.79185740904610
