14
Coordinates from ORCA-job c5h9_18
  C   1.86265150655678      0.00006004645276     -0.46198109521061
  C   0.82076921286515     -0.00051467553644      0.66349553092302
  C   -0.60561482045514     -0.00001892268414      0.13654579232776
  C   -1.23474844367080      1.21581731465788     -0.11903686241606
  H   -2.24578493836603      1.25236025239692     -0.53372102743037
  H   1.74913202878248      0.88908736706066     -1.10325289187119
  H   -0.73868565654190      2.16729969196925      0.08965442605500
  C   -1.23547644782055     -1.21537945219170     -0.11945151330030
  H   -2.24654233077633     -1.25117647477167     -0.53412888265912
  H   -0.73996286493560     -2.16722067927323      0.08890311997445
  H   2.88773413102827     -0.00030943012389     -0.05687913702913
  H   0.97345593479101     -0.88455736242817      1.30485275666492
  H   0.97366172651958      0.88271288019254      1.30593132493631
  H   1.74892096202309     -0.88814055572078     -1.10436154096468
