14
Coordinates from ORCA-job c5h9_17
  C   2.10235809578321     -0.08186917060354      0.00000448647486
  C   0.84825898746574     -0.66997948697974     -0.00001225081335
  C   -0.39987759246502     -0.03556213943299     -0.00001613465994
  C   -0.56573626765827      1.45483351929686      0.00000216075858
  H   -1.14265451054700      1.78539133307489      0.88394793904482
  H   2.24159344806071      1.00180859835465      0.00002380766700
  H   0.38925103966009      1.99681462230635     -0.00032217426622
  C   -1.66743623935643     -0.83729125477637      0.00002231779844
  H   -2.29109926291374     -0.60054755430882     -0.88322769314449
  H   -1.47437152794320     -1.92061348691990      0.00003537384617
  H   -1.14323484762113      1.78534301354533     -0.88357777391369
  H   3.00459774341797     -0.69722700137801     -0.00000016743613
  H   -2.29105457390622     -0.60052466871313      0.88329893103602
  H   0.82226550802329     -1.76727632346559     -0.00001882239206
