14
Coordinates from ORCA-job c5h9_46
  C   -2.60835896753637     -0.20671715935455      0.08722983223975
  C   -1.19324550813167      0.15656985064363      0.24350412831200
  C   -0.06074437787164      0.14559107429211     -0.42996512757486
  C   1.28507822605004      0.61272834620018      0.07123803787540
  C   2.32383232484468     -0.51423418821596      0.11376283883560
  H   -3.26976701309841      0.66840972253406      0.21021544026670
  H   1.16512313970719      1.05726671704826      1.07234438561023
  H   3.30474401467160     -0.14078641431690      0.45003543329649
  H   2.00732587096686     -1.31456093466993      0.80197033316337
  H   2.46158963590445     -0.96829314601014     -0.88209824666687
  H   1.65348340472298      1.41880271173107     -0.59052675790584
  H   -0.07062151240141     -0.26194864063465     -1.46087909183741
  H   -2.92042186220868     -0.95923149617757      0.83200837566740
  H   -2.79917737561961     -0.63228644306960     -0.91995958128197
