14
Coordinates from ORCA-job c5h9_16
  C   2.18603987520205     -0.16596146602749     -0.00002818047520
  C   0.77417344978203     -0.57458433232793      0.00002919115440
  C   -0.44797502109481     -0.06712766102150      0.00000675850422
  C   -0.70964712531983      1.42876992516007     -0.00007147601772
  H   -1.30105085144133      1.71805015322133      0.88686117237921
  H   2.29087230333339      0.93866887170558     -0.00028713648600
  H   0.21773615024566      2.01955657877724     -0.00033742972454
  C   -1.68290467260057     -0.94039249740111      0.00007913678579
  H   -2.30857553367822     -0.73171445917542     -0.88643484850415
  H   -1.42502057468581     -2.00881612416039      0.00020980828029
  H   -1.30146616749537      1.71789006880817     -0.88677716198575
  H   2.71995480587676     -0.54631809518543      0.88839765220234
  H   2.71999374282099     -0.54673320717097     -0.88825283321986
  H   -2.30863038094492     -0.73150775520215      0.88650534710698
