14
Coordinates from ORCA-job c5h9_41
  C   -2.52962216989729     -0.34542327016146     -0.08626314478812
  C   -1.22693997924702      0.31065206037255      0.28939291500284
  C   -0.05967745149655      0.12489596573998     -0.29434282689619
  C   1.34067042600329      0.57059792468706     -0.18681948385743
  C   2.32992696112358     -0.55766403059193      0.14129784949481
  H   -3.28668619186446      0.40834203156415     -0.36547031272103
  H   1.39827762110017      1.35852010791515      0.59566774735447
  H   3.35912171128185     -0.17025830714678      0.20571508153522
  H   2.07943666265277     -1.03263481856376      1.10296780397287
  H   2.30624425832827     -1.33931056506892     -0.63430991236134
  H   1.64426217649745      1.06278929685587     -1.12940937593142
  H   -2.94597999546541     -0.91354684575778      0.76400583694257
  H   -2.40031337460881     -1.03529613011573     -0.93301153074827
  H   -1.26953065440784      1.01887658027161      1.14031935300100
