14
Coordinates from ORCA-job c5h9_5
  C   -2.13426655068048     -0.73904466437074      0.00003026900061
  C   -1.57229625175946      0.45129520959313      0.00000448887401
  C   -0.09324426104759      0.75360679520273     -0.00002423515151
  C   0.81712622623772     -0.47393908879225      0.00002734864007
  C   2.30185680335562     -0.11479801541725     -0.00001007481982
  H   -3.14096364152485     -1.15623090234986      0.00005598446217
  H   0.13319329016808      1.38972758087231     -0.87747115840666
  H   0.57799556773045     -1.09609351974420     -0.87989777502151
  H   2.93519252697117     -1.01624061608568      0.00003168198701
  H   2.57086729356912      0.48084788233563     -0.88896900898380
  H   2.57088829005307      0.48094504422731      0.88887740440448
  H   0.57801906739042     -1.09600436788146      0.88002185654774
  H   0.13321118473072      1.38981571991442      0.87735370216598
  H   -2.23381954519401      1.33875294249590     -0.00000048369877
