14
Coordinates from ORCA-job c5h9_43
  C   -2.47321325601909     -0.25077734239712      0.00831242697886
  C   -1.10198437176195      0.28942985452951      0.28365106160654
  C   0.00105977811950     -0.00165184629760     -0.41579329557807
  C   1.37914079484463      0.53601249643392     -0.12646559102732
  C   2.37381093976329     -0.52800259557701      0.20848932982506
  H   -3.18935502984051      0.56254578965587     -0.20621643073796
  H   3.43422225136339     -0.40663113487205     -0.02830405892332
  H   1.74467193400774      1.11726875186613     -0.99448666844770
  H   -2.87359297727316     -0.79337789826998      0.88323057769803
  H   -2.47422603084320     -0.94035855070617     -0.85029597458945
  H   -1.01288653580108      0.98310882994553      1.13166462677392
  H   -0.07269567437297     -0.70051402611350     -1.26006350217529
  H   1.30568136635869      1.27081665398130      0.70526194902958
  H   2.07471681145473     -1.38284898217883      0.82174554956710
