14
Coordinates from ORCA-job c5h9_23
  C   -2.10295472049384      0.32926056154163     -0.08437863516927
  C   -0.94504963799165     -0.64289682100755      0.15667072646046
  C   0.36517653386862     -0.14716579250651     -0.33447923708208
  C   1.26617052346400      0.91640796938192      0.13241605647819
  H   -2.24674788588439      0.51134709660809     -1.16140282699770
  H   1.14494067850025      1.30380729601095      1.15459254059813
  C   1.75409862980605     -0.52883055756858     -0.05166851368273
  H   1.96838593401669     -1.12946821608759      0.84424030759309
  H   -0.85348379996366     -0.84373535927383      1.24818508308430
  H   2.44306056502036     -0.72414458350666     -0.88404149099274
  H   -1.16501476995892     -1.62464931428152     -0.30011602189628
  H   -3.04766263053545     -0.06331603570502      0.32425334178453
  H   -1.90400204135083      1.30286852796035      0.39232179218205
  H   1.63627262150276      1.66702522843429     -0.57817312235995
